version 3
run GEANT-0-20221022-15:30:49-11838
attr configname GEANT
attr datetime 20221022-15:30:49
attr datetimef 20221022-153049
attr experiment GEANT
attr inifile omnetpp.ini
attr iterationvars ""
attr iterationvarsd ""
attr iterationvarsf ""
attr measurement ""
attr network GEANT
attr processid 11838
attr repetition 0
attr replication #0
attr resultdir results
attr runnumber 0
attr seedset 0
config image-path ../../../omnetpp-6.0.1/samples/inet4.4/images
config network GEANT
config description "GEANT Network"
config *.*.ipv4.arp.typename GlobalArp
config *.node*.numApps 23
config *.node*.app[1..22].typename UdpBasicApp
config *.node*.app[0].typename UdpSink
config *.node*.app[1..22].messageLength 1000B
config *.node*.app[1..22].destPort "5000 + index"
config *.node*.app[0].localPort 5000
config *.node*.app[1..22].destAddresses "\"node\" + string(index) + \"\""
config *.node*.app[1..22].sendInterval exponential(12ms)
config *.node*.app[1..22].packetName "\"UDPData\""
config sim-time-limit 900s
config *.configurator.dumpAddresses true
config *.configurator.dumpTopology true
config *.configurator.dumpLinks true
config *.configurator.dumpRoutes true
config *.visualizer.interfaceTableVisualizer.displayInterfaceTables true

par GEANT.node1.ethg$o[0].channel typename "\"inet.node.ethernet.Eth100M\""
par GEANT.node1.ethg$o[0].channel disabled false
attr mutable ""
par GEANT.node1.ethg$o[0].channel delay 5e-08s
attr mutable ""
attr unit s
par GEANT.node1.ethg$o[0].channel datarate 1e+08bps
attr mutable ""
attr unit bps
par GEANT.node1.ethg$o[0].channel ber 0
attr mutable ""
par GEANT.node1.ethg$o[0].channel per 0
attr mutable ""
par GEANT.node1.ethg$o[0].channel length 10m
attr unit m
par GEANT.node3.ethg$o[0].channel typename "\"inet.node.ethernet.Eth100M\""
par GEANT.node3.ethg$o[0].channel disabled false
attr mutable ""
par GEANT.node3.ethg$o[0].channel delay 5e-08s
attr mutable ""
attr unit s
par GEANT.node3.ethg$o[0].channel datarate 1e+08bps
attr mutable ""
attr unit bps
par GEANT.node3.ethg$o[0].channel ber 0
attr mutable ""
par GEANT.node3.ethg$o[0].channel per 0
attr mutable ""
par GEANT.node3.ethg$o[0].channel length 10m
attr unit m
par GEANT.node1.ethg$o[1].channel typename "\"inet.node.ethernet.Eth100M\""
par GEANT.node1.ethg$o[1].channel disabled false
attr mutable ""
par GEANT.node1.ethg$o[1].channel delay 5e-08s
attr mutable ""
attr unit s
par GEANT.node1.ethg$o[1].channel datarate 1e+08bps
attr mutable ""
attr unit bps
par GEANT.node1.ethg$o[1].channel ber 0
attr mutable ""
par GEANT.node1.ethg$o[1].channel per 0
attr mutable ""
par GEANT.node1.ethg$o[1].channel length 10m
attr unit m
par GEANT.node7.ethg$o[0].channel typename "\"inet.node.ethernet.Eth100M\""
par GEANT.node7.ethg$o[0].channel disabled false
attr mutable ""
par GEANT.node7.ethg$o[0].channel delay 5e-08s
attr mutable ""
attr unit s
par GEANT.node7.ethg$o[0].channel datarate 1e+08bps
attr mutable ""
attr unit bps
par GEANT.node7.ethg$o[0].channel ber 0
attr mutable ""
par GEANT.node7.ethg$o[0].channel per 0
attr mutable ""
par GEANT.node7.ethg$o[0].channel length 10m
attr unit m
par GEANT.node1.ethg$o[2].channel typename "\"inet.node.ethernet.Eth100M\""
par GEANT.node1.ethg$o[2].channel disabled false
attr mutable ""
par GEANT.node1.ethg$o[2].channel delay 5e-08s
attr mutable ""
attr unit s
par GEANT.node1.ethg$o[2].channel datarate 1e+08bps
attr mutable ""
attr unit bps
par GEANT.node1.ethg$o[2].channel ber 0
attr mutable ""
par GEANT.node1.ethg$o[2].channel per 0
attr mutable ""
par GEANT.node1.ethg$o[2].channel length 10m
attr unit m
par GEANT.node16.ethg$o[0].channel typename "\"inet.node.ethernet.Eth100M\""
par GEANT.node16.ethg$o[0].channel disabled false
attr mutable ""
par GEANT.node16.ethg$o[0].channel delay 5e-08s
attr mutable ""
attr unit s
par GEANT.node16.ethg$o[0].channel datarate 1e+08bps
attr mutable ""
attr unit bps
par GEANT.node16.ethg$o[0].channel ber 0
attr mutable ""
par GEANT.node16.ethg$o[0].channel per 0
attr mutable ""
par GEANT.node16.ethg$o[0].channel length 10m
attr unit m
par GEANT.node2.ethg$o[0].channel typename "\"inet.node.ethernet.Eth100M\""
par GEANT.node2.ethg$o[0].channel disabled false
attr mutable ""
par GEANT.node2.ethg$o[0].channel delay 5e-08s
attr mutable ""
attr unit s
par GEANT.node2.ethg$o[0].channel datarate 1e+08bps
attr mutable ""
attr unit bps
par GEANT.node2.ethg$o[0].channel ber 0
attr mutable ""
par GEANT.node2.ethg$o[0].channel per 0
attr mutable ""
par GEANT.node2.ethg$o[0].channel length 10m
attr unit m
par GEANT.node4.ethg$o[0].channel typename "\"inet.node.ethernet.Eth100M\""
par GEANT.node4.ethg$o[0].channel disabled false
attr mutable ""
par GEANT.node4.ethg$o[0].channel delay 5e-08s
attr mutable ""
attr unit s
par GEANT.node4.ethg$o[0].channel datarate 1e+08bps
attr mutable ""
attr unit bps
par GEANT.node4.ethg$o[0].channel ber 0
attr mutable ""
par GEANT.node4.ethg$o[0].channel per 0
attr mutable ""
par GEANT.node4.ethg$o[0].channel length 10m
attr unit m
par GEANT.node2.ethg$o[1].channel typename "\"inet.node.ethernet.Eth100M\""
par GEANT.node2.ethg$o[1].channel disabled false
attr mutable ""
par GEANT.node2.ethg$o[1].channel delay 5e-08s
attr mutable ""
attr unit s
par GEANT.node2.ethg$o[1].channel datarate 1e+08bps
attr mutable ""
attr unit bps
par GEANT.node2.ethg$o[1].channel ber 0
attr mutable ""
par GEANT.node2.ethg$o[1].channel per 0
attr mutable ""
par GEANT.node2.ethg$o[1].channel length 10m
attr unit m
par GEANT.node7.ethg$o[1].channel typename "\"inet.node.ethernet.Eth100M\""
par GEANT.node7.ethg$o[1].channel disabled false
attr mutable ""
par GEANT.node7.ethg$o[1].channel delay 5e-08s
attr mutable ""
attr unit s
par GEANT.node7.ethg$o[1].channel datarate 1e+08bps
attr mutable ""
attr unit bps
par GEANT.node7.ethg$o[1].channel ber 0
attr mutable ""
par GEANT.node7.ethg$o[1].channel per 0
attr mutable ""
par GEANT.node7.ethg$o[1].channel length 10m
attr unit m
par GEANT.node2.ethg$o[2].channel typename "\"inet.node.ethernet.Eth100M\""
par GEANT.node2.ethg$o[2].channel disabled false
attr mutable ""
par GEANT.node2.ethg$o[2].channel delay 5e-08s
attr mutable ""
attr unit s
par GEANT.node2.ethg$o[2].channel datarate 1e+08bps
attr mutable ""
attr unit bps
par GEANT.node2.ethg$o[2].channel ber 0
attr mutable ""
par GEANT.node2.ethg$o[2].channel per 0
attr mutable ""
par GEANT.node2.ethg$o[2].channel length 10m
attr unit m
par GEANT.node12.ethg$o[0].channel typename "\"inet.node.ethernet.Eth100M\""
par GEANT.node12.ethg$o[0].channel disabled false
attr mutable ""
par GEANT.node12.ethg$o[0].channel delay 5e-08s
attr mutable ""
attr unit s
par GEANT.node12.ethg$o[0].channel datarate 1e+08bps
attr mutable ""
attr unit bps
par GEANT.node12.ethg$o[0].channel ber 0
attr mutable ""
par GEANT.node12.ethg$o[0].channel per 0
attr mutable ""
par GEANT.node12.ethg$o[0].channel length 10m
attr unit m
par GEANT.node2.ethg$o[3].channel typename "\"inet.node.ethernet.Eth100M\""
par GEANT.node2.ethg$o[3].channel disabled false
attr mutable ""
par GEANT.node2.ethg$o[3].channel delay 5e-08s
attr mutable ""
attr unit s
par GEANT.node2.ethg$o[3].channel datarate 1e+08bps
attr mutable ""
attr unit bps
par GEANT.node2.ethg$o[3].channel ber 0
attr mutable ""
par GEANT.node2.ethg$o[3].channel per 0
attr mutable ""
par GEANT.node2.ethg$o[3].channel length 10m
attr unit m
par GEANT.node13.ethg$o[0].channel typename "\"inet.node.ethernet.Eth100M\""
par GEANT.node13.ethg$o[0].channel disabled false
attr mutable ""
par GEANT.node13.ethg$o[0].channel delay 5e-08s
attr mutable ""
attr unit s
par GEANT.node13.ethg$o[0].channel datarate 1e+08bps
attr mutable ""
attr unit bps
par GEANT.node13.ethg$o[0].channel ber 0
attr mutable ""
par GEANT.node13.ethg$o[0].channel per 0
attr mutable ""
par GEANT.node13.ethg$o[0].channel length 10m
attr unit m
par GEANT.node2.ethg$o[4].channel typename "\"inet.node.ethernet.Eth25M\""
par GEANT.node2.ethg$o[4].channel disabled false
attr mutable ""
par GEANT.node2.ethg$o[4].channel delay 5e-08s
attr mutable ""
attr unit s
par GEANT.node2.ethg$o[4].channel datarate 1e+07bps
attr mutable ""
attr unit bps
par GEANT.node2.ethg$o[4].channel ber 0
attr mutable ""
par GEANT.node2.ethg$o[4].channel per 0
attr mutable ""
par GEANT.node2.ethg$o[4].channel length 10m
attr unit m
par GEANT.node18.ethg$o[0].channel typename "\"inet.node.ethernet.Eth25M\""
par GEANT.node18.ethg$o[0].channel disabled false
attr mutable ""
par GEANT.node18.ethg$o[0].channel delay 5e-08s
attr mutable ""
attr unit s
par GEANT.node18.ethg$o[0].channel datarate 1e+07bps
attr mutable ""
attr unit bps
par GEANT.node18.ethg$o[0].channel ber 0
attr mutable ""
par GEANT.node18.ethg$o[0].channel per 0
attr mutable ""
par GEANT.node18.ethg$o[0].channel length 10m
attr unit m
par GEANT.node2.ethg$o[5].channel typename "\"inet.node.ethernet.Eth25M\""
par GEANT.node2.ethg$o[5].channel disabled false
attr mutable ""
par GEANT.node2.ethg$o[5].channel delay 5e-08s
attr mutable ""
attr unit s
par GEANT.node2.ethg$o[5].channel datarate 1e+07bps
attr mutable ""
attr unit bps
par GEANT.node2.ethg$o[5].channel ber 0
attr mutable ""
par GEANT.node2.ethg$o[5].channel per 0
attr mutable ""
par GEANT.node2.ethg$o[5].channel length 10m
attr unit m
par GEANT.node23.ethg$o[0].channel typename "\"inet.node.ethernet.Eth25M\""
par GEANT.node23.ethg$o[0].channel disabled false
attr mutable ""
par GEANT.node23.ethg$o[0].channel delay 5e-08s
attr mutable ""
attr unit s
par GEANT.node23.ethg$o[0].channel datarate 1e+07bps
attr mutable ""
attr unit bps
par GEANT.node23.ethg$o[0].channel ber 0
attr mutable ""
par GEANT.node23.ethg$o[0].channel per 0
attr mutable ""
par GEANT.node23.ethg$o[0].channel length 10m
attr unit m
par GEANT.node3.ethg$o[1].channel typename "\"inet.node.ethernet.Eth100M\""
par GEANT.node3.ethg$o[1].channel disabled false
attr mutable ""
par GEANT.node3.ethg$o[1].channel delay 5e-08s
attr mutable ""
attr unit s
par GEANT.node3.ethg$o[1].channel datarate 1e+08bps
attr mutable ""
attr unit bps
par GEANT.node3.ethg$o[1].channel ber 0
attr mutable ""
par GEANT.node3.ethg$o[1].channel per 0
attr mutable ""
par GEANT.node3.ethg$o[1].channel length 10m
attr unit m
par GEANT.node10.ethg$o[0].channel typename "\"inet.node.ethernet.Eth100M\""
par GEANT.node10.ethg$o[0].channel disabled false
attr mutable ""
par GEANT.node10.ethg$o[0].channel delay 5e-08s
attr mutable ""
attr unit s
par GEANT.node10.ethg$o[0].channel datarate 1e+08bps
attr mutable ""
attr unit bps
par GEANT.node10.ethg$o[0].channel ber 0
attr mutable ""
par GEANT.node10.ethg$o[0].channel per 0
attr mutable ""
par GEANT.node10.ethg$o[0].channel length 10m
attr unit m
par GEANT.node3.ethg$o[2].channel typename "\"inet.node.ethernet.Eth25M\""
par GEANT.node3.ethg$o[2].channel disabled false
attr mutable ""
par GEANT.node3.ethg$o[2].channel delay 5e-08s
attr mutable ""
attr unit s
par GEANT.node3.ethg$o[2].channel datarate 1e+07bps
attr mutable ""
attr unit bps
par GEANT.node3.ethg$o[2].channel ber 0
attr mutable ""
par GEANT.node3.ethg$o[2].channel per 0
attr mutable ""
par GEANT.node3.ethg$o[2].channel length 10m
attr unit m
par GEANT.node11.ethg$o[0].channel typename "\"inet.node.ethernet.Eth25M\""
par GEANT.node11.ethg$o[0].channel disabled false
attr mutable ""
par GEANT.node11.ethg$o[0].channel delay 5e-08s
attr mutable ""
attr unit s
par GEANT.node11.ethg$o[0].channel datarate 1e+07bps
attr mutable ""
attr unit bps
par GEANT.node11.ethg$o[0].channel ber 0
attr mutable ""
par GEANT.node11.ethg$o[0].channel per 0
attr mutable ""
par GEANT.node11.ethg$o[0].channel length 10m
attr unit m
par GEANT.node3.ethg$o[3].channel typename "\"inet.node.ethernet.Eth1550K\""
par GEANT.node3.ethg$o[3].channel disabled false
attr mutable ""
par GEANT.node3.ethg$o[3].channel delay 5e-08s
attr mutable ""
attr unit s
par GEANT.node3.ethg$o[3].channel datarate 1e+07bps
attr mutable ""
attr unit bps
par GEANT.node3.ethg$o[3].channel ber 0
attr mutable ""
par GEANT.node3.ethg$o[3].channel per 0
attr mutable ""
par GEANT.node3.ethg$o[3].channel length 10m
attr unit m
par GEANT.node14.ethg$o[0].channel typename "\"inet.node.ethernet.Eth1550K\""
par GEANT.node14.ethg$o[0].channel disabled false
attr mutable ""
par GEANT.node14.ethg$o[0].channel delay 5e-08s
attr mutable ""
attr unit s
par GEANT.node14.ethg$o[0].channel datarate 1e+07bps
attr mutable ""
attr unit bps
par GEANT.node14.ethg$o[0].channel ber 0
attr mutable ""
par GEANT.node14.ethg$o[0].channel per 0
attr mutable ""
par GEANT.node14.ethg$o[0].channel length 10m
attr unit m
par GEANT.node3.ethg$o[4].channel typename "\"inet.node.ethernet.Eth100M\""
par GEANT.node3.ethg$o[4].channel disabled false
attr mutable ""
par GEANT.node3.ethg$o[4].channel delay 5e-08s
attr mutable ""
attr unit s
par GEANT.node3.ethg$o[4].channel datarate 1e+08bps
attr mutable ""
attr unit bps
par GEANT.node3.ethg$o[4].channel ber 0
attr mutable ""
par GEANT.node3.ethg$o[4].channel per 0
attr mutable ""
par GEANT.node3.ethg$o[4].channel length 10m
attr unit m
par GEANT.node21.ethg$o[0].channel typename "\"inet.node.ethernet.Eth100M\""
par GEANT.node21.ethg$o[0].channel disabled false
attr mutable ""
par GEANT.node21.ethg$o[0].channel delay 5e-08s
attr mutable ""
attr unit s
par GEANT.node21.ethg$o[0].channel datarate 1e+08bps
attr mutable ""
attr unit bps
par GEANT.node21.ethg$o[0].channel ber 0
attr mutable ""
par GEANT.node21.ethg$o[0].channel per 0
attr mutable ""
par GEANT.node21.ethg$o[0].channel length 10m
attr unit m
par GEANT.node4.ethg$o[1].channel typename "\"inet.node.ethernet.Eth100M\""
par GEANT.node4.ethg$o[1].channel disabled false
attr mutable ""
par GEANT.node4.ethg$o[1].channel delay 5e-08s
attr mutable ""
attr unit s
par GEANT.node4.ethg$o[1].channel datarate 1e+08bps
attr mutable ""
attr unit bps
par GEANT.node4.ethg$o[1].channel ber 0
attr mutable ""
par GEANT.node4.ethg$o[1].channel per 0
attr mutable ""
par GEANT.node4.ethg$o[1].channel length 10m
attr unit m
par GEANT.node16.ethg$o[1].channel typename "\"inet.node.ethernet.Eth100M\""
par GEANT.node16.ethg$o[1].channel disabled false
attr mutable ""
par GEANT.node16.ethg$o[1].channel delay 5e-08s
attr mutable ""
attr unit s
par GEANT.node16.ethg$o[1].channel datarate 1e+08bps
attr mutable ""
attr unit bps
par GEANT.node16.ethg$o[1].channel ber 0
attr mutable ""
par GEANT.node16.ethg$o[1].channel per 0
attr mutable ""
par GEANT.node16.ethg$o[1].channel length 10m
attr unit m
par GEANT.node5.ethg$o[0].channel typename "\"inet.node.ethernet.Eth25M\""
par GEANT.node5.ethg$o[0].channel disabled false
attr mutable ""
par GEANT.node5.ethg$o[0].channel delay 5e-08s
attr mutable ""
attr unit s
par GEANT.node5.ethg$o[0].channel datarate 1e+07bps
attr mutable ""
attr unit bps
par GEANT.node5.ethg$o[0].channel ber 0
attr mutable ""
par GEANT.node5.ethg$o[0].channel per 0
attr mutable ""
par GEANT.node5.ethg$o[0].channel length 10m
attr unit m
par GEANT.node8.ethg$o[0].channel typename "\"inet.node.ethernet.Eth25M\""
par GEANT.node8.ethg$o[0].channel disabled false
attr mutable ""
par GEANT.node8.ethg$o[0].channel delay 5e-08s
attr mutable ""
attr unit s
par GEANT.node8.ethg$o[0].channel datarate 1e+07bps
attr mutable ""
attr unit bps
par GEANT.node8.ethg$o[0].channel ber 0
attr mutable ""
par GEANT.node8.ethg$o[0].channel per 0
attr mutable ""
par GEANT.node8.ethg$o[0].channel length 10m
attr unit m
par GEANT.node5.ethg$o[1].channel typename "\"inet.node.ethernet.Eth25M\""
par GEANT.node5.ethg$o[1].channel disabled false
attr mutable ""
par GEANT.node5.ethg$o[1].channel delay 5e-08s
attr mutable ""
attr unit s
par GEANT.node5.ethg$o[1].channel datarate 1e+07bps
attr mutable ""
attr unit bps
par GEANT.node5.ethg$o[1].channel ber 0
attr mutable ""
par GEANT.node5.ethg$o[1].channel per 0
attr mutable ""
par GEANT.node5.ethg$o[1].channel length 10m
attr unit m
par GEANT.node16.ethg$o[2].channel typename "\"inet.node.ethernet.Eth25M\""
par GEANT.node16.ethg$o[2].channel disabled false
attr mutable ""
par GEANT.node16.ethg$o[2].channel delay 5e-08s
attr mutable ""
attr unit s
par GEANT.node16.ethg$o[2].channel datarate 1e+07bps
attr mutable ""
attr unit bps
par GEANT.node16.ethg$o[2].channel ber 0
attr mutable ""
par GEANT.node16.ethg$o[2].channel per 0
attr mutable ""
par GEANT.node16.ethg$o[2].channel length 10m
attr unit m
par GEANT.node6.ethg$o[0].channel typename "\"inet.node.ethernet.Eth1550K\""
par GEANT.node6.ethg$o[0].channel disabled false
attr mutable ""
par GEANT.node6.ethg$o[0].channel delay 5e-08s
attr mutable ""
attr unit s
par GEANT.node6.ethg$o[0].channel datarate 1e+07bps
attr mutable ""
attr unit bps
par GEANT.node6.ethg$o[0].channel ber 0
attr mutable ""
par GEANT.node6.ethg$o[0].channel per 0
attr mutable ""
par GEANT.node6.ethg$o[0].channel length 10m
attr unit m
par GEANT.node7.ethg$o[2].channel typename "\"inet.node.ethernet.Eth1550K\""
par GEANT.node7.ethg$o[2].channel disabled false
attr mutable ""
par GEANT.node7.ethg$o[2].channel delay 5e-08s
attr mutable ""
attr unit s
par GEANT.node7.ethg$o[2].channel datarate 1e+07bps
attr mutable ""
attr unit bps
par GEANT.node7.ethg$o[2].channel ber 0
attr mutable ""
par GEANT.node7.ethg$o[2].channel per 0
attr mutable ""
par GEANT.node7.ethg$o[2].channel length 10m
attr unit m
par GEANT.node6.ethg$o[1].channel typename "\"inet.node.ethernet.Eth1550K\""
par GEANT.node6.ethg$o[1].channel disabled false
attr mutable ""
par GEANT.node6.ethg$o[1].channel delay 5e-08s
attr mutable ""
attr unit s
par GEANT.node6.ethg$o[1].channel datarate 1e+07bps
attr mutable ""
attr unit bps
par GEANT.node6.ethg$o[1].channel ber 0
attr mutable ""
par GEANT.node6.ethg$o[1].channel per 0
attr mutable ""
par GEANT.node6.ethg$o[1].channel length 10m
attr unit m
par GEANT.node19.ethg$o[0].channel typename "\"inet.node.ethernet.Eth1550K\""
par GEANT.node19.ethg$o[0].channel disabled false
attr mutable ""
par GEANT.node19.ethg$o[0].channel delay 5e-08s
attr mutable ""
attr unit s
par GEANT.node19.ethg$o[0].channel datarate 1e+07bps
attr mutable ""
attr unit bps
par GEANT.node19.ethg$o[0].channel ber 0
attr mutable ""
par GEANT.node19.ethg$o[0].channel per 0
attr mutable ""
par GEANT.node19.ethg$o[0].channel length 10m
attr unit m
par GEANT.node7.ethg$o[3].channel typename "\"inet.node.ethernet.Eth100M\""
par GEANT.node7.ethg$o[3].channel disabled false
attr mutable ""
par GEANT.node7.ethg$o[3].channel delay 5e-08s
attr mutable ""
attr unit s
par GEANT.node7.ethg$o[3].channel datarate 1e+08bps
attr mutable ""
attr unit bps
par GEANT.node7.ethg$o[3].channel ber 0
attr mutable ""
par GEANT.node7.ethg$o[3].channel per 0
attr mutable ""
par GEANT.node7.ethg$o[3].channel length 10m
attr unit m
par GEANT.node17.ethg$o[0].channel typename "\"inet.node.ethernet.Eth100M\""
par GEANT.node17.ethg$o[0].channel disabled false
attr mutable ""
par GEANT.node17.ethg$o[0].channel delay 5e-08s
attr mutable ""
attr unit s
par GEANT.node17.ethg$o[0].channel datarate 1e+08bps
attr mutable ""
attr unit bps
par GEANT.node17.ethg$o[0].channel ber 0
attr mutable ""
par GEANT.node17.ethg$o[0].channel per 0
attr mutable ""
par GEANT.node17.ethg$o[0].channel length 10m
attr unit m
par GEANT.node7.ethg$o[4].channel typename "\"inet.node.ethernet.Eth25M\""
par GEANT.node7.ethg$o[4].channel disabled false
attr mutable ""
par GEANT.node7.ethg$o[4].channel delay 5e-08s
attr mutable ""
attr unit s
par GEANT.node7.ethg$o[4].channel datarate 1e+07bps
attr mutable ""
attr unit bps
par GEANT.node7.ethg$o[4].channel ber 0
attr mutable ""
par GEANT.node7.ethg$o[4].channel per 0
attr mutable ""
par GEANT.node7.ethg$o[4].channel length 10m
attr unit m
par GEANT.node19.ethg$o[1].channel typename "\"inet.node.ethernet.Eth25M\""
par GEANT.node19.ethg$o[1].channel disabled false
attr mutable ""
par GEANT.node19.ethg$o[1].channel delay 5e-08s
attr mutable ""
attr unit s
par GEANT.node19.ethg$o[1].channel datarate 1e+07bps
attr mutable ""
attr unit bps
par GEANT.node19.ethg$o[1].channel ber 0
attr mutable ""
par GEANT.node19.ethg$o[1].channel per 0
attr mutable ""
par GEANT.node19.ethg$o[1].channel length 10m
attr unit m
par GEANT.node7.ethg$o[5].channel typename "\"inet.node.ethernet.Eth100M\""
par GEANT.node7.ethg$o[5].channel disabled false
attr mutable ""
par GEANT.node7.ethg$o[5].channel delay 5e-08s
attr mutable ""
attr unit s
par GEANT.node7.ethg$o[5].channel datarate 1e+08bps
attr mutable ""
attr unit bps
par GEANT.node7.ethg$o[5].channel ber 0
attr mutable ""
par GEANT.node7.ethg$o[5].channel per 0
attr mutable ""
par GEANT.node7.ethg$o[5].channel length 10m
attr unit m
par GEANT.node21.ethg$o[1].channel typename "\"inet.node.ethernet.Eth100M\""
par GEANT.node21.ethg$o[1].channel disabled false
attr mutable ""
par GEANT.node21.ethg$o[1].channel delay 5e-08s
attr mutable ""
attr unit s
par GEANT.node21.ethg$o[1].channel datarate 1e+08bps
attr mutable ""
attr unit bps
par GEANT.node21.ethg$o[1].channel ber 0
attr mutable ""
par GEANT.node21.ethg$o[1].channel per 0
attr mutable ""
par GEANT.node21.ethg$o[1].channel length 10m
attr unit m
par GEANT.node8.ethg$o[1].channel typename "\"inet.node.ethernet.Eth25M\""
par GEANT.node8.ethg$o[1].channel disabled false
attr mutable ""
par GEANT.node8.ethg$o[1].channel delay 5e-08s
attr mutable ""
attr unit s
par GEANT.node8.ethg$o[1].channel datarate 1e+07bps
attr mutable ""
attr unit bps
par GEANT.node8.ethg$o[1].channel ber 0
attr mutable ""
par GEANT.node8.ethg$o[1].channel per 0
attr mutable ""
par GEANT.node8.ethg$o[1].channel length 10m
attr unit m
par GEANT.node9.ethg$o[0].channel typename "\"inet.node.ethernet.Eth25M\""
par GEANT.node9.ethg$o[0].channel disabled false
attr mutable ""
par GEANT.node9.ethg$o[0].channel delay 5e-08s
attr mutable ""
attr unit s
par GEANT.node9.ethg$o[0].channel datarate 1e+07bps
attr mutable ""
attr unit bps
par GEANT.node9.ethg$o[0].channel ber 0
attr mutable ""
par GEANT.node9.ethg$o[0].channel per 0
attr mutable ""
par GEANT.node9.ethg$o[0].channel length 10m
attr unit m
par GEANT.node9.ethg$o[1].channel typename "\"inet.node.ethernet.Eth25M\""
par GEANT.node9.ethg$o[1].channel disabled false
attr mutable ""
par GEANT.node9.ethg$o[1].channel delay 5e-08s
attr mutable ""
attr unit s
par GEANT.node9.ethg$o[1].channel datarate 1e+07bps
attr mutable ""
attr unit bps
par GEANT.node9.ethg$o[1].channel ber 0
attr mutable ""
par GEANT.node9.ethg$o[1].channel per 0
attr mutable ""
par GEANT.node9.ethg$o[1].channel length 10m
attr unit m
par GEANT.node15.ethg$o[0].channel typename "\"inet.node.ethernet.Eth25M\""
par GEANT.node15.ethg$o[0].channel disabled false
attr mutable ""
par GEANT.node15.ethg$o[0].channel delay 5e-08s
attr mutable ""
attr unit s
par GEANT.node15.ethg$o[0].channel datarate 1e+07bps
attr mutable ""
attr unit bps
par GEANT.node15.ethg$o[0].channel ber 0
attr mutable ""
par GEANT.node15.ethg$o[0].channel per 0
attr mutable ""
par GEANT.node15.ethg$o[0].channel length 10m
attr unit m
par GEANT.node9.ethg$o[2].channel typename "\"inet.node.ethernet.Eth100M\""
par GEANT.node9.ethg$o[2].channel disabled false
attr mutable ""
par GEANT.node9.ethg$o[2].channel delay 5e-08s
attr mutable ""
attr unit s
par GEANT.node9.ethg$o[2].channel datarate 1e+08bps
attr mutable ""
attr unit bps
par GEANT.node9.ethg$o[2].channel ber 0
attr mutable ""
par GEANT.node9.ethg$o[2].channel per 0
attr mutable ""
par GEANT.node9.ethg$o[2].channel length 10m
attr unit m
par GEANT.node16.ethg$o[3].channel typename "\"inet.node.ethernet.Eth100M\""
par GEANT.node16.ethg$o[3].channel disabled false
attr mutable ""
par GEANT.node16.ethg$o[3].channel delay 5e-08s
attr mutable ""
attr unit s
par GEANT.node16.ethg$o[3].channel datarate 1e+08bps
attr mutable ""
attr unit bps
par GEANT.node16.ethg$o[3].channel ber 0
attr mutable ""
par GEANT.node16.ethg$o[3].channel per 0
attr mutable ""
par GEANT.node16.ethg$o[3].channel length 10m
attr unit m
par GEANT.node10.ethg$o[1].channel typename "\"inet.node.ethernet.Eth25M\""
par GEANT.node10.ethg$o[1].channel disabled false
attr mutable ""
par GEANT.node10.ethg$o[1].channel delay 5e-08s
attr mutable ""
attr unit s
par GEANT.node10.ethg$o[1].channel datarate 1e+07bps
attr mutable ""
attr unit bps
par GEANT.node10.ethg$o[1].channel ber 0
attr mutable ""
par GEANT.node10.ethg$o[1].channel per 0
attr mutable ""
par GEANT.node10.ethg$o[1].channel length 10m
attr unit m
par GEANT.node11.ethg$o[1].channel typename "\"inet.node.ethernet.Eth25M\""
par GEANT.node11.ethg$o[1].channel disabled false
attr mutable ""
par GEANT.node11.ethg$o[1].channel delay 5e-08s
attr mutable ""
attr unit s
par GEANT.node11.ethg$o[1].channel datarate 1e+07bps
attr mutable ""
attr unit bps
par GEANT.node11.ethg$o[1].channel ber 0
attr mutable ""
par GEANT.node11.ethg$o[1].channel per 0
attr mutable ""
par GEANT.node11.ethg$o[1].channel length 10m
attr unit m
par GEANT.node10.ethg$o[2].channel typename "\"inet.node.ethernet.Eth100M\""
par GEANT.node10.ethg$o[2].channel disabled false
attr mutable ""
par GEANT.node10.ethg$o[2].channel delay 5e-08s
attr mutable ""
attr unit s
par GEANT.node10.ethg$o[2].channel datarate 1e+08bps
attr mutable ""
attr unit bps
par GEANT.node10.ethg$o[2].channel ber 0
attr mutable ""
par GEANT.node10.ethg$o[2].channel per 0
attr mutable ""
par GEANT.node10.ethg$o[2].channel length 10m
attr unit m
par GEANT.node12.ethg$o[1].channel typename "\"inet.node.ethernet.Eth100M\""
par GEANT.node12.ethg$o[1].channel disabled false
attr mutable ""
par GEANT.node12.ethg$o[1].channel delay 5e-08s
attr mutable ""
attr unit s
par GEANT.node12.ethg$o[1].channel datarate 1e+08bps
attr mutable ""
attr unit bps
par GEANT.node12.ethg$o[1].channel ber 0
attr mutable ""
par GEANT.node12.ethg$o[1].channel per 0
attr mutable ""
par GEANT.node12.ethg$o[1].channel length 10m
attr unit m
par GEANT.node10.ethg$o[3].channel typename "\"inet.node.ethernet.Eth100M\""
par GEANT.node10.ethg$o[3].channel disabled false
attr mutable ""
par GEANT.node10.ethg$o[3].channel delay 5e-08s
attr mutable ""
attr unit s
par GEANT.node10.ethg$o[3].channel datarate 1e+08bps
attr mutable ""
attr unit bps
par GEANT.node10.ethg$o[3].channel ber 0
attr mutable ""
par GEANT.node10.ethg$o[3].channel per 0
attr mutable ""
par GEANT.node10.ethg$o[3].channel length 10m
attr unit m
par GEANT.node16.ethg$o[4].channel typename "\"inet.node.ethernet.Eth100M\""
par GEANT.node16.ethg$o[4].channel disabled false
attr mutable ""
par GEANT.node16.ethg$o[4].channel delay 5e-08s
attr mutable ""
attr unit s
par GEANT.node16.ethg$o[4].channel datarate 1e+08bps
attr mutable ""
attr unit bps
par GEANT.node16.ethg$o[4].channel ber 0
attr mutable ""
par GEANT.node16.ethg$o[4].channel per 0
attr mutable ""
par GEANT.node16.ethg$o[4].channel length 10m
attr unit m
par GEANT.node10.ethg$o[4].channel typename "\"inet.node.ethernet.Eth100M\""
par GEANT.node10.ethg$o[4].channel disabled false
attr mutable ""
par GEANT.node10.ethg$o[4].channel delay 5e-08s
attr mutable ""
attr unit s
par GEANT.node10.ethg$o[4].channel datarate 1e+08bps
attr mutable ""
attr unit bps
par GEANT.node10.ethg$o[4].channel ber 0
attr mutable ""
par GEANT.node10.ethg$o[4].channel per 0
attr mutable ""
par GEANT.node10.ethg$o[4].channel length 10m
attr unit m
par GEANT.node17.ethg$o[1].channel typename "\"inet.node.ethernet.Eth100M\""
par GEANT.node17.ethg$o[1].channel disabled false
attr mutable ""
par GEANT.node17.ethg$o[1].channel delay 5e-08s
attr mutable ""
attr unit s
par GEANT.node17.ethg$o[1].channel datarate 1e+08bps
attr mutable ""
attr unit bps
par GEANT.node17.ethg$o[1].channel ber 0
attr mutable ""
par GEANT.node17.ethg$o[1].channel per 0
attr mutable ""
par GEANT.node17.ethg$o[1].channel length 10m
attr unit m
par GEANT.node12.ethg$o[2].channel typename "\"inet.node.ethernet.Eth100M\""
par GEANT.node12.ethg$o[2].channel disabled false
attr mutable ""
par GEANT.node12.ethg$o[2].channel delay 5e-08s
attr mutable ""
attr unit s
par GEANT.node12.ethg$o[2].channel datarate 1e+08bps
attr mutable ""
attr unit bps
par GEANT.node12.ethg$o[2].channel ber 0
attr mutable ""
par GEANT.node12.ethg$o[2].channel per 0
attr mutable ""
par GEANT.node12.ethg$o[2].channel length 10m
attr unit m
par GEANT.node22.ethg$o[0].channel typename "\"inet.node.ethernet.Eth100M\""
par GEANT.node22.ethg$o[0].channel disabled false
attr mutable ""
par GEANT.node22.ethg$o[0].channel delay 5e-08s
attr mutable ""
attr unit s
par GEANT.node22.ethg$o[0].channel datarate 1e+08bps
attr mutable ""
attr unit bps
par GEANT.node22.ethg$o[0].channel ber 0
attr mutable ""
par GEANT.node22.ethg$o[0].channel per 0
attr mutable ""
par GEANT.node22.ethg$o[0].channel length 10m
attr unit m
par GEANT.node13.ethg$o[1].channel typename "\"inet.node.ethernet.Eth1550K\""
par GEANT.node13.ethg$o[1].channel disabled false
attr mutable ""
par GEANT.node13.ethg$o[1].channel delay 5e-08s
attr mutable ""
attr unit s
par GEANT.node13.ethg$o[1].channel datarate 1e+07bps
attr mutable ""
attr unit bps
par GEANT.node13.ethg$o[1].channel ber 0
attr mutable ""
par GEANT.node13.ethg$o[1].channel per 0
attr mutable ""
par GEANT.node13.ethg$o[1].channel length 10m
attr unit m
par GEANT.node14.ethg$o[1].channel typename "\"inet.node.ethernet.Eth1550K\""
par GEANT.node14.ethg$o[1].channel disabled false
attr mutable ""
par GEANT.node14.ethg$o[1].channel delay 5e-08s
attr mutable ""
attr unit s
par GEANT.node14.ethg$o[1].channel datarate 1e+07bps
attr mutable ""
attr unit bps
par GEANT.node14.ethg$o[1].channel ber 0
attr mutable ""
par GEANT.node14.ethg$o[1].channel per 0
attr mutable ""
par GEANT.node14.ethg$o[1].channel length 10m
attr unit m
par GEANT.node13.ethg$o[2].channel typename "\"inet.node.ethernet.Eth100M\""
par GEANT.node13.ethg$o[2].channel disabled false
attr mutable ""
par GEANT.node13.ethg$o[2].channel delay 5e-08s
attr mutable ""
attr unit s
par GEANT.node13.ethg$o[2].channel datarate 1e+08bps
attr mutable ""
attr unit bps
par GEANT.node13.ethg$o[2].channel ber 0
attr mutable ""
par GEANT.node13.ethg$o[2].channel per 0
attr mutable ""
par GEANT.node13.ethg$o[2].channel length 10m
attr unit m
par GEANT.node17.ethg$o[2].channel typename "\"inet.node.ethernet.Eth100M\""
par GEANT.node17.ethg$o[2].channel disabled false
attr mutable ""
par GEANT.node17.ethg$o[2].channel delay 5e-08s
attr mutable ""
attr unit s
par GEANT.node17.ethg$o[2].channel datarate 1e+08bps
attr mutable ""
attr unit bps
par GEANT.node17.ethg$o[2].channel ber 0
attr mutable ""
par GEANT.node17.ethg$o[2].channel per 0
attr mutable ""
par GEANT.node17.ethg$o[2].channel length 10m
attr unit m
par GEANT.node13.ethg$o[3].channel typename "\"inet.node.ethernet.Eth25M\""
par GEANT.node13.ethg$o[3].channel disabled false
attr mutable ""
par GEANT.node13.ethg$o[3].channel delay 5e-08s
attr mutable ""
attr unit s
par GEANT.node13.ethg$o[3].channel datarate 1e+07bps
attr mutable ""
attr unit bps
par GEANT.node13.ethg$o[3].channel ber 0
attr mutable ""
par GEANT.node13.ethg$o[3].channel per 0
attr mutable ""
par GEANT.node13.ethg$o[3].channel length 10m
attr unit m
par GEANT.node19.ethg$o[2].channel typename "\"inet.node.ethernet.Eth25M\""
par GEANT.node19.ethg$o[2].channel disabled false
attr mutable ""
par GEANT.node19.ethg$o[2].channel delay 5e-08s
attr mutable ""
attr unit s
par GEANT.node19.ethg$o[2].channel datarate 1e+07bps
attr mutable ""
attr unit bps
par GEANT.node19.ethg$o[2].channel ber 0
attr mutable ""
par GEANT.node19.ethg$o[2].channel per 0
attr mutable ""
par GEANT.node19.ethg$o[2].channel length 10m
attr unit m
par GEANT.node15.ethg$o[1].channel typename "\"inet.node.ethernet.Eth25M\""
par GEANT.node15.ethg$o[1].channel disabled false
attr mutable ""
par GEANT.node15.ethg$o[1].channel delay 5e-08s
attr mutable ""
attr unit s
par GEANT.node15.ethg$o[1].channel datarate 1e+07bps
attr mutable ""
attr unit bps
par GEANT.node15.ethg$o[1].channel ber 0
attr mutable ""
par GEANT.node15.ethg$o[1].channel per 0
attr mutable ""
par GEANT.node15.ethg$o[1].channel length 10m
attr unit m
par GEANT.node20.ethg$o[0].channel typename "\"inet.node.ethernet.Eth25M\""
par GEANT.node20.ethg$o[0].channel disabled false
attr mutable ""
par GEANT.node20.ethg$o[0].channel delay 5e-08s
attr mutable ""
attr unit s
par GEANT.node20.ethg$o[0].channel datarate 1e+07bps
attr mutable ""
attr unit bps
par GEANT.node20.ethg$o[0].channel ber 0
attr mutable ""
par GEANT.node20.ethg$o[0].channel per 0
attr mutable ""
par GEANT.node20.ethg$o[0].channel length 10m
attr unit m
par GEANT.node17.ethg$o[3].channel typename "\"inet.node.ethernet.Eth100M\""
par GEANT.node17.ethg$o[3].channel disabled false
attr mutable ""
par GEANT.node17.ethg$o[3].channel delay 5e-08s
attr mutable ""
attr unit s
par GEANT.node17.ethg$o[3].channel datarate 1e+08bps
attr mutable ""
attr unit bps
par GEANT.node17.ethg$o[3].channel ber 0
attr mutable ""
par GEANT.node17.ethg$o[3].channel per 0
attr mutable ""
par GEANT.node17.ethg$o[3].channel length 10m
attr unit m
par GEANT.node20.ethg$o[1].channel typename "\"inet.node.ethernet.Eth100M\""
par GEANT.node20.ethg$o[1].channel disabled false
attr mutable ""
par GEANT.node20.ethg$o[1].channel delay 5e-08s
attr mutable ""
attr unit s
par GEANT.node20.ethg$o[1].channel datarate 1e+08bps
attr mutable ""
attr unit bps
par GEANT.node20.ethg$o[1].channel ber 0
attr mutable ""
par GEANT.node20.ethg$o[1].channel per 0
attr mutable ""
par GEANT.node20.ethg$o[1].channel length 10m
attr unit m
par GEANT.node17.ethg$o[4].channel typename "\"inet.node.ethernet.Eth25M\""
par GEANT.node17.ethg$o[4].channel disabled false
attr mutable ""
par GEANT.node17.ethg$o[4].channel delay 5e-08s
attr mutable ""
attr unit s
par GEANT.node17.ethg$o[4].channel datarate 1e+07bps
attr mutable ""
attr unit bps
par GEANT.node17.ethg$o[4].channel ber 0
attr mutable ""
par GEANT.node17.ethg$o[4].channel per 0
attr mutable ""
par GEANT.node17.ethg$o[4].channel length 10m
attr unit m
par GEANT.node23.ethg$o[1].channel typename "\"inet.node.ethernet.Eth25M\""
par GEANT.node23.ethg$o[1].channel disabled false
attr mutable ""
par GEANT.node23.ethg$o[1].channel delay 5e-08s
attr mutable ""
attr unit s
par GEANT.node23.ethg$o[1].channel datarate 1e+07bps
attr mutable ""
attr unit bps
par GEANT.node23.ethg$o[1].channel ber 0
attr mutable ""
par GEANT.node23.ethg$o[1].channel per 0
attr mutable ""
par GEANT.node23.ethg$o[1].channel length 10m
attr unit m
par GEANT.node18.ethg$o[1].channel typename "\"inet.node.ethernet.Eth25M\""
par GEANT.node18.ethg$o[1].channel disabled false
attr mutable ""
par GEANT.node18.ethg$o[1].channel delay 5e-08s
attr mutable ""
attr unit s
par GEANT.node18.ethg$o[1].channel datarate 1e+07bps
attr mutable ""
attr unit bps
par GEANT.node18.ethg$o[1].channel ber 0
attr mutable ""
par GEANT.node18.ethg$o[1].channel per 0
attr mutable ""
par GEANT.node18.ethg$o[1].channel length 10m
attr unit m
par GEANT.node21.ethg$o[2].channel typename "\"inet.node.ethernet.Eth25M\""
par GEANT.node21.ethg$o[2].channel disabled false
attr mutable ""
par GEANT.node21.ethg$o[2].channel delay 5e-08s
attr mutable ""
attr unit s
par GEANT.node21.ethg$o[2].channel datarate 1e+07bps
attr mutable ""
attr unit bps
par GEANT.node21.ethg$o[2].channel ber 0
attr mutable ""
par GEANT.node21.ethg$o[2].channel per 0
attr mutable ""
par GEANT.node21.ethg$o[2].channel length 10m
attr unit m
par GEANT.node20.ethg$o[2].channel typename "\"inet.node.ethernet.Eth25M\""
par GEANT.node20.ethg$o[2].channel disabled false
attr mutable ""
par GEANT.node20.ethg$o[2].channel delay 5e-08s
attr mutable ""
attr unit s
par GEANT.node20.ethg$o[2].channel datarate 1e+07bps
attr mutable ""
attr unit bps
par GEANT.node20.ethg$o[2].channel ber 0
attr mutable ""
par GEANT.node20.ethg$o[2].channel per 0
attr mutable ""
par GEANT.node20.ethg$o[2].channel length 10m
attr unit m
par GEANT.node22.ethg$o[1].channel typename "\"inet.node.ethernet.Eth25M\""
par GEANT.node22.ethg$o[1].channel disabled false
attr mutable ""
par GEANT.node22.ethg$o[1].channel delay 5e-08s
attr mutable ""
attr unit s
par GEANT.node22.ethg$o[1].channel datarate 1e+07bps
attr mutable ""
attr unit bps
par GEANT.node22.ethg$o[1].channel ber 0
attr mutable ""
par GEANT.node22.ethg$o[1].channel per 0
attr mutable ""
par GEANT.node22.ethg$o[1].channel length 10m
attr unit m
par GEANT.configurator typename "\"inet.networklayer.configurator.ipv4.Ipv4NetworkConfigurator\""
par GEANT.configurator minLinkWeight 0.001
par GEANT.configurator configureIsolatedNetworksSeparatly false
par GEANT.configurator config "<config>...</config> at content:1"
par GEANT.configurator assignAddresses true
par GEANT.configurator assignUniqueAddresses true
par GEANT.configurator assignDisjunctSubnetAddresses true
par GEANT.configurator addStaticRoutes true
par GEANT.configurator addDefaultRoutes true
par GEANT.configurator addSubnetRoutes true
par GEANT.configurator addDirectRoutes true
par GEANT.configurator optimizeRoutes true
par GEANT.configurator dumpTopology true
par GEANT.configurator dumpLinks true
par GEANT.configurator dumpAddresses true
par GEANT.configurator dumpRoutes true
par GEANT.configurator dumpConfig "\"\""
par GEANT.visualizer.sceneVisualizer typename "\"inet.visualizer.canvas.scene.SceneCanvasVisualizer\""
par GEANT.visualizer.sceneVisualizer visualizationTargetModule "\"^.^\""
par GEANT.visualizer.sceneVisualizer visualizationSubjectModule "\"^.^\""
par GEANT.visualizer.sceneVisualizer tags "\"\""
par GEANT.visualizer.sceneVisualizer physicalEnvironmentModule "\"physicalEnvironment\""
par GEANT.visualizer.sceneVisualizer networkNodeVisualizerModule "\"^.networkNodeVisualizer\""
par GEANT.visualizer.sceneVisualizer axisLength "nan m"
attr mutable ""
attr unit m
par GEANT.visualizer.sceneVisualizer animationSpeed 0
par GEANT.visualizer.sceneVisualizer sceneMinX "nan m"
attr unit m
par GEANT.visualizer.sceneVisualizer sceneMinY "nan m"
attr unit m
par GEANT.visualizer.sceneVisualizer sceneMinZ "nan m"
attr unit m
par GEANT.visualizer.sceneVisualizer sceneMaxX "nan m"
attr unit m
par GEANT.visualizer.sceneVisualizer sceneMaxY "nan m"
attr unit m
par GEANT.visualizer.sceneVisualizer sceneMaxZ "nan m"
attr unit m
par GEANT.visualizer.sceneVisualizer zIndex 0
par GEANT.visualizer.sceneVisualizer viewAngle "\"x right y down z out\""
attr mutable ""
par GEANT.visualizer.sceneVisualizer viewScale "\"1 1\""
attr mutable ""
par GEANT.visualizer.sceneVisualizer viewTranslation "\"0 0\""
attr mutable ""
par GEANT.visualizer.sceneVisualizer descriptionFigure "\"\""
par GEANT.visualizer.physicalEnvironmentVisualizer typename "\"inet.visualizer.canvas.environment.PhysicalEnvironmentCanvasVisualizer\""
par GEANT.visualizer.physicalEnvironmentVisualizer visualizationTargetModule "\"^.^\""
par GEANT.visualizer.physicalEnvironmentVisualizer visualizationSubjectModule "\"^.^\""
par GEANT.visualizer.physicalEnvironmentVisualizer tags "\"\""
par GEANT.visualizer.physicalEnvironmentVisualizer physicalEnvironmentModule "\"physicalEnvironment\""
par GEANT.visualizer.physicalEnvironmentVisualizer displayObjects true
par GEANT.visualizer.physicalEnvironmentVisualizer zIndex 0
par GEANT.visualizer.networkNodeVisualizer typename "\"inet.visualizer.canvas.scene.NetworkNodeCanvasVisualizer\""
par GEANT.visualizer.networkNodeVisualizer visualizationTargetModule "\"^.^\""
par GEANT.visualizer.networkNodeVisualizer visualizationSubjectModule "\"^.^\""
par GEANT.visualizer.networkNodeVisualizer tags "\"\""
par GEANT.visualizer.networkNodeVisualizer nodeFilter "\"*\""
attr mutable ""
par GEANT.visualizer.networkNodeVisualizer annotationSpacing 4
par GEANT.visualizer.networkNodeVisualizer placementPenalty 10
par GEANT.visualizer.networkNodeVisualizer zIndex 0
par GEANT.visualizer.networkConnectionVisualizer typename "\"inet.visualizer.canvas.scene.NetworkConnectionCanvasVisualizer\""
par GEANT.visualizer.networkConnectionVisualizer visualizationTargetModule "\"^.^\""
par GEANT.visualizer.networkConnectionVisualizer visualizationSubjectModule "\"^.^\""
par GEANT.visualizer.networkConnectionVisualizer tags "\"\""
par GEANT.visualizer.networkConnectionVisualizer displayNetworkConnections true
par GEANT.visualizer.networkConnectionVisualizer nodeFilter "\"\""
attr mutable ""
par GEANT.visualizer.networkConnectionVisualizer lineColor "\"black\""
par GEANT.visualizer.networkConnectionVisualizer lineStyle "\"solid\""
par GEANT.visualizer.networkConnectionVisualizer lineWidth 1
par GEANT.visualizer.networkConnectionVisualizer zIndex 0
par GEANT.visualizer.mobilityVisualizer typename "\"inet.visualizer.canvas.mobility.MobilityCanvasVisualizer\""
par GEANT.visualizer.mobilityVisualizer visualizationTargetModule "\"^.^\""
par GEANT.visualizer.mobilityVisualizer visualizationSubjectModule "\"^.^\""
par GEANT.visualizer.mobilityVisualizer tags "\"\""
par GEANT.visualizer.mobilityVisualizer networkNodeVisualizerModule "\"^.networkNodeVisualizer\""
par GEANT.visualizer.mobilityVisualizer displayMobility true
par GEANT.visualizer.mobilityVisualizer animationSpeed 0
par GEANT.visualizer.mobilityVisualizer moduleFilter "\"**.mobility\""
attr mutable ""
par GEANT.visualizer.mobilityVisualizer displayPositions false
par GEANT.visualizer.mobilityVisualizer positionCircleRadius 4
par GEANT.visualizer.mobilityVisualizer positionCircleLineWidth 1
par GEANT.visualizer.mobilityVisualizer positionCircleLineColor "\"dark\""
attr enum light,dark
par GEANT.visualizer.mobilityVisualizer positionCircleFillColor "\"dark\""
attr enum light,dark
par GEANT.visualizer.mobilityVisualizer displayOrientations false
par GEANT.visualizer.mobilityVisualizer orientationPieRadius 32
par GEANT.visualizer.mobilityVisualizer orientationPieSize 0.2
par GEANT.visualizer.mobilityVisualizer orientationPieOpacity 0.25
par GEANT.visualizer.mobilityVisualizer orientationLineColor "\"black\""
par GEANT.visualizer.mobilityVisualizer orientationLineStyle "\"solid\""
par GEANT.visualizer.mobilityVisualizer orientationLineWidth 1
par GEANT.visualizer.mobilityVisualizer orientationFillColor "\"blue\""
par GEANT.visualizer.mobilityVisualizer displayVelocities false
par GEANT.visualizer.mobilityVisualizer velocityArrowScale 1
par GEANT.visualizer.mobilityVisualizer velocityLineColor "\"black\""
par GEANT.visualizer.mobilityVisualizer velocityLineStyle "\"solid\""
par GEANT.visualizer.mobilityVisualizer velocityLineWidth 1
par GEANT.visualizer.mobilityVisualizer displayMovementTrails false
par GEANT.visualizer.mobilityVisualizer movementTrailLineColor "\"dark\""
attr enum light,dark
par GEANT.visualizer.mobilityVisualizer movementTrailLineStyle "\"solid\""
par GEANT.visualizer.mobilityVisualizer movementTrailLineWidth 1
par GEANT.visualizer.mobilityVisualizer trailLength 100
par GEANT.visualizer.mobilityVisualizer zIndex 0
par GEANT.visualizer.statisticVisualizer typename "\"inet.visualizer.canvas.common.StatisticCanvasVisualizer\""
par GEANT.visualizer.statisticVisualizer visualizationTargetModule "\"^.^\""
par GEANT.visualizer.statisticVisualizer visualizationSubjectModule "\"^.^\""
par GEANT.visualizer.statisticVisualizer tags "\"\""
par GEANT.visualizer.statisticVisualizer networkNodeVisualizerModule "\"^.networkNodeVisualizer\""
par GEANT.visualizer.statisticVisualizer displayStatistics true
par GEANT.visualizer.statisticVisualizer signalName "\"\""
par GEANT.visualizer.statisticVisualizer statisticName "\"\""
par GEANT.visualizer.statisticVisualizer statisticUnit "\"\""
par GEANT.visualizer.statisticVisualizer statisticExpression "\"\""
par GEANT.visualizer.statisticVisualizer sourceFilter "\"**\""
attr mutable ""
par GEANT.visualizer.statisticVisualizer format "\"%n: %v %u\""
attr mutable ""
par GEANT.visualizer.statisticVisualizer unit "\"\""
par GEANT.visualizer.statisticVisualizer font "\"<default>\""
par GEANT.visualizer.statisticVisualizer textColor "\"black\""
par GEANT.visualizer.statisticVisualizer backgroundColor "\"white\""
par GEANT.visualizer.statisticVisualizer opacity 1
par GEANT.visualizer.statisticVisualizer placementHint "\"top\""
par GEANT.visualizer.statisticVisualizer placementPriority 0
par GEANT.visualizer.statisticVisualizer zIndex 10
par GEANT.visualizer.statisticVisualizer propertyName "\"\""
par GEANT.visualizer.statisticVisualizer propertyIndex "\"\""
par GEANT.visualizer.infoVisualizer typename "\"inet.visualizer.canvas.common.InfoCanvasVisualizer\""
par GEANT.visualizer.infoVisualizer visualizationTargetModule "\"^.^\""
par GEANT.visualizer.infoVisualizer visualizationSubjectModule "\"^.^\""
par GEANT.visualizer.infoVisualizer tags "\"\""
par GEANT.visualizer.infoVisualizer networkNodeVisualizerModule "\"^.networkNodeVisualizer\""
par GEANT.visualizer.infoVisualizer displayInfos true
par GEANT.visualizer.infoVisualizer modules "\"\""
attr mutable ""
par GEANT.visualizer.infoVisualizer format "\"%t\""
attr mutable ""
par GEANT.visualizer.infoVisualizer font "\"<default>\""
par GEANT.visualizer.infoVisualizer textColor "\"black\""
par GEANT.visualizer.infoVisualizer backgroundColor "\"white\""
par GEANT.visualizer.infoVisualizer opacity 1
par GEANT.visualizer.infoVisualizer placementHint "\"top\""
par GEANT.visualizer.infoVisualizer placementPriority 0
par GEANT.visualizer.infoVisualizer zIndex 10
par GEANT.visualizer.energyStorageVisualizer typename "\"inet.visualizer.canvas.power.EnergyStorageCanvasVisualizer\""
par GEANT.visualizer.energyStorageVisualizer visualizationTargetModule "\"^.^\""
par GEANT.visualizer.energyStorageVisualizer visualizationSubjectModule "\"^.^\""
par GEANT.visualizer.energyStorageVisualizer tags "\"\""
par GEANT.visualizer.energyStorageVisualizer networkNodeVisualizerModule "\"^.networkNodeVisualizer\""
par GEANT.visualizer.energyStorageVisualizer displayEnergyStorages false
par GEANT.visualizer.energyStorageVisualizer energyStorageFilter "\"**\""
par GEANT.visualizer.energyStorageVisualizer color "\"green\""
par GEANT.visualizer.energyStorageVisualizer width 8
par GEANT.visualizer.energyStorageVisualizer height 24
par GEANT.visualizer.energyStorageVisualizer spacing 2
par GEANT.visualizer.energyStorageVisualizer placementHint "\"right\""
par GEANT.visualizer.energyStorageVisualizer placementPriority 0
par GEANT.visualizer.energyStorageVisualizer zIndex 10
par GEANT.visualizer.mediumVisualizer typename "\"inet.visualizer.canvas.physicallayer.MediumCanvasVisualizer\""
par GEANT.visualizer.mediumVisualizer visualizationTargetModule "\"^.^\""
par GEANT.visualizer.mediumVisualizer visualizationSubjectModule "\"^.^\""
par GEANT.visualizer.mediumVisualizer tags "\"\""
par GEANT.visualizer.mediumVisualizer mediumModule "\"radioMedium\""
par GEANT.visualizer.mediumVisualizer networkNodeVisualizerModule "\"^.networkNodeVisualizer\""
par GEANT.visualizer.mediumVisualizer nodeFilter "\"*\""
attr mutable ""
par GEANT.visualizer.mediumVisualizer interfaceFilter "\"*\""
attr mutable ""
par GEANT.visualizer.mediumVisualizer packetFilter "(omnetpp::cValueHolder)holder: \"*\""
attr mutable ""
par GEANT.visualizer.mediumVisualizer displaySignals false
par GEANT.visualizer.mediumVisualizer signalColor "\"dark\""
attr enum light,dark
par GEANT.visualizer.mediumVisualizer signalPropagationAnimationSpeed "nan "
attr mutable ""
par GEANT.visualizer.mediumVisualizer signalPropagationAnimationTime 1s
attr unit s
par GEANT.visualizer.mediumVisualizer signalPropagationAdditionalTime 0s
attr unit s
par GEANT.visualizer.mediumVisualizer signalTransmissionAnimationSpeed "nan "
attr mutable ""
par GEANT.visualizer.mediumVisualizer signalTransmissionAnimationTime 1s
attr unit s
par GEANT.visualizer.mediumVisualizer signalAnimationSpeedChangeTimeMode "\"realTime\""
attr enum realTime,animationTime,simulationTime
par GEANT.visualizer.mediumVisualizer signalAnimationSpeedChangeTime 1s
attr unit s
par GEANT.visualizer.mediumVisualizer displaySignalDepartures false
par GEANT.visualizer.mediumVisualizer signalDepartureImage "\"misc/signal_departure.png\""
par GEANT.visualizer.mediumVisualizer signalDeparturePlacementHint "\"topCenter\""
par GEANT.visualizer.mediumVisualizer signalDeparturePlacementPriority 1
par GEANT.visualizer.mediumVisualizer displaySignalArrivals false
par GEANT.visualizer.mediumVisualizer signalArrivalImage "\"misc/signal_arrival.png\""
par GEANT.visualizer.mediumVisualizer signalArrivalPlacementHint "\"topCenter\""
par GEANT.visualizer.mediumVisualizer signalArrivalPlacementPriority -1
par GEANT.visualizer.mediumVisualizer displayCommunicationRanges false
par GEANT.visualizer.mediumVisualizer communicationRangeLineColor "\"blue\""
par GEANT.visualizer.mediumVisualizer communicationRangeLineStyle "\"solid\""
par GEANT.visualizer.mediumVisualizer communicationRangeLineWidth 1
par GEANT.visualizer.mediumVisualizer displayInterferenceRanges false
par GEANT.visualizer.mediumVisualizer interferenceRangeLineColor "\"gray\""
par GEANT.visualizer.mediumVisualizer interferenceRangeLineStyle "\"solid\""
par GEANT.visualizer.mediumVisualizer interferenceRangeLineWidth 1
par GEANT.visualizer.mediumVisualizer autoPowerAxis true
par GEANT.visualizer.mediumVisualizer signalMinPower "inf dBmW"
attr unit dBmW
par GEANT.visualizer.mediumVisualizer signalMaxPower 0dBmW
attr unit dBmW
par GEANT.visualizer.mediumVisualizer signalMinPowerDensity "inf dBmWpMHz"
attr unit dBmWpMHz
par GEANT.visualizer.mediumVisualizer signalMaxPowerDensity "-inf dBmWpMHz"
attr unit dBmWpMHz
par GEANT.visualizer.mediumVisualizer autoTimeAxis true
par GEANT.visualizer.mediumVisualizer signalMinTime 0s
attr unit s
par GEANT.visualizer.mediumVisualizer signalMaxTime 0s
attr unit s
par GEANT.visualizer.mediumVisualizer autoFrequencyAxis true
par GEANT.visualizer.mediumVisualizer signalMinFrequency "inf Hz"
attr unit Hz
par GEANT.visualizer.mediumVisualizer signalMaxFrequency "-inf Hz"
attr unit Hz
par GEANT.visualizer.mediumVisualizer displayMainPowerDensityMap false
par GEANT.visualizer.mediumVisualizer mainPowerDensityMapPixmapDensity 1
par GEANT.visualizer.mediumVisualizer mainPowerDensityMapMinX 0
par GEANT.visualizer.mediumVisualizer mainPowerDensityMapMaxX "nan "
par GEANT.visualizer.mediumVisualizer mainPowerDensityMapMinY 0
par GEANT.visualizer.mediumVisualizer mainPowerDensityMapMaxY "nan "
par GEANT.visualizer.mediumVisualizer mainPowerDensityMapZ 0
par GEANT.visualizer.mediumVisualizer mainPowerDensityMapFigureXTickCount 3
par GEANT.visualizer.mediumVisualizer mainPowerDensityMapFigureYTickCount 3
par GEANT.visualizer.mediumVisualizer displayPowerDensityMaps false
par GEANT.visualizer.mediumVisualizer powerDensityMapMode "\"auto\""
attr enum total,signal,auto
par GEANT.visualizer.mediumVisualizer powerDensityMapPixelMode "\"mean\""
attr enum sample,partition,mean
par GEANT.visualizer.mediumVisualizer powerDensityMapApproximationSize 10
par GEANT.visualizer.mediumVisualizer powerDensityMapCenterFrequency "nan Hz"
attr mutable ""
attr unit Hz
par GEANT.visualizer.mediumVisualizer powerDensityMapBandwidth 0Hz
attr mutable ""
attr unit Hz
par GEANT.visualizer.mediumVisualizer powerDensityMapFigureWidth 200
par GEANT.visualizer.mediumVisualizer powerDensityMapFigureHeight 120
par GEANT.visualizer.mediumVisualizer powerDensityMapPixmapWidth 200
par GEANT.visualizer.mediumVisualizer powerDensityMapPixmapHeight 120
par GEANT.visualizer.mediumVisualizer powerDensityMapZ 0
par GEANT.visualizer.mediumVisualizer powerDensityMapFigureXTickCount 3
par GEANT.visualizer.mediumVisualizer powerDensityMapFigureYTickCount 3
par GEANT.visualizer.mediumVisualizer displaySpectrums false
par GEANT.visualizer.mediumVisualizer spectrumMode "\"auto\""
attr enum total,signal,auto
par GEANT.visualizer.mediumVisualizer spectrumFigureWidth 200
par GEANT.visualizer.mediumVisualizer spectrumFigureHeight 120
par GEANT.visualizer.mediumVisualizer spectrumFigureXTickCount 3
par GEANT.visualizer.mediumVisualizer spectrumFigureYTickCount 5
par GEANT.visualizer.mediumVisualizer spectrumFigureInterpolationSize 5
par GEANT.visualizer.mediumVisualizer spectrumPlacementHint "\"bottomCenter\""
par GEANT.visualizer.mediumVisualizer spectrumPlacementPriority -1
par GEANT.visualizer.mediumVisualizer displaySpectrograms false
par GEANT.visualizer.mediumVisualizer spectrogramMode "\"auto\""
attr enum total,signal,auto
par GEANT.visualizer.mediumVisualizer spectrogramPixelMode "\"mean\""
attr enum sample,partition,mean
par GEANT.visualizer.mediumVisualizer spectrogramFigureWidth 200
par GEANT.visualizer.mediumVisualizer spectrogramFigureHeight 120
par GEANT.visualizer.mediumVisualizer spectrogramPixmapWidth 200
par GEANT.visualizer.mediumVisualizer spectrogramPixmapHeight 120
par GEANT.visualizer.mediumVisualizer spectrogramFigureXTickCount 3
par GEANT.visualizer.mediumVisualizer spectrogramFigureYTickCount 5
par GEANT.visualizer.mediumVisualizer spectrogramPlacementHint "\"bottomCenter\""
par GEANT.visualizer.mediumVisualizer spectrogramPlacementPriority -1
par GEANT.visualizer.mediumVisualizer zIndex 0
par GEANT.visualizer.mediumVisualizer signalShape "\"ring\""
attr enum ring,sphere
par GEANT.visualizer.mediumVisualizer signalOpacity 0.5
par GEANT.visualizer.mediumVisualizer signalRingCount 20
par GEANT.visualizer.mediumVisualizer signalRingSize 50m
attr unit m
par GEANT.visualizer.mediumVisualizer signalFadingDistance 50m
attr unit m
par GEANT.visualizer.mediumVisualizer signalFadingFactor 1.2
par GEANT.visualizer.mediumVisualizer signalWaveCount 20
par GEANT.visualizer.mediumVisualizer signalWaveLength 50m
attr unit m
par GEANT.visualizer.mediumVisualizer signalWaveWidth 10m
attr unit m
par GEANT.visualizer.mediumVisualizer signalWaveFadingAnimationSpeedFactor 1
par GEANT.visualizer.mediumVisualizer displayCommunicationHeat false
par GEANT.visualizer.obstacleLossVisualizer typename "\"inet.visualizer.canvas.physicallayer.TracingObstacleLossCanvasVisualizer\""
par GEANT.visualizer.obstacleLossVisualizer visualizationTargetModule "\"^.^\""
par GEANT.visualizer.obstacleLossVisualizer visualizationSubjectModule "\"^.^\""
par GEANT.visualizer.obstacleLossVisualizer tags "\"\""
par GEANT.visualizer.obstacleLossVisualizer displayIntersections false
par GEANT.visualizer.obstacleLossVisualizer intersectionLineColor "\"red\""
par GEANT.visualizer.obstacleLossVisualizer intersectionLineStyle "\"solid\""
par GEANT.visualizer.obstacleLossVisualizer intersectionLineWidth 1
par GEANT.visualizer.obstacleLossVisualizer displayFaceNormalVectors false
par GEANT.visualizer.obstacleLossVisualizer faceNormalLineColor "\"grey\""
par GEANT.visualizer.obstacleLossVisualizer faceNormalLineStyle "\"solid\""
par GEANT.visualizer.obstacleLossVisualizer faceNormalLineWidth 1
par GEANT.visualizer.obstacleLossVisualizer fadeOutMode "\"realTime\""
attr enum realTime,animationTime,simulationTime
par GEANT.visualizer.obstacleLossVisualizer fadeOutTime 1s
attr unit s
par GEANT.visualizer.obstacleLossVisualizer fadeOutAnimationSpeed 0
par GEANT.visualizer.obstacleLossVisualizer zIndex 0
par GEANT.visualizer.packetDropVisualizer typename "\"inet.visualizer.canvas.common.PacketDropCanvasVisualizer\""
par GEANT.visualizer.packetDropVisualizer visualizationTargetModule "\"^.^\""
par GEANT.visualizer.packetDropVisualizer visualizationSubjectModule "\"^.^\""
par GEANT.visualizer.packetDropVisualizer tags "\"\""
par GEANT.visualizer.packetDropVisualizer displayPacketDrops false
par GEANT.visualizer.packetDropVisualizer nodeFilter "\"*\""
attr mutable ""
par GEANT.visualizer.packetDropVisualizer interfaceFilter "\"*\""
attr mutable ""
par GEANT.visualizer.packetDropVisualizer packetFilter "(omnetpp::cValueHolder)holder: \"*\""
attr mutable ""
par GEANT.visualizer.packetDropVisualizer detailsFilter "\"*\""
attr mutable ""
par GEANT.visualizer.packetDropVisualizer icon "\"msg/packet_s\""
par GEANT.visualizer.packetDropVisualizer iconTintAmount 1
par GEANT.visualizer.packetDropVisualizer iconTintColor "\"dark\""
par GEANT.visualizer.packetDropVisualizer labelFormat "\"%n\""
attr mutable ""
par GEANT.visualizer.packetDropVisualizer labelFont "\"<default>\""
par GEANT.visualizer.packetDropVisualizer labelColor "\"black\""
par GEANT.visualizer.packetDropVisualizer fadeOutMode "\"realTime\""
attr enum realTime,animationTime,simulationTime
par GEANT.visualizer.packetDropVisualizer fadeOutTime 1s
attr unit s
par GEANT.visualizer.packetDropVisualizer fadeOutAnimationSpeed 0
par GEANT.visualizer.packetDropVisualizer zIndex 10
par GEANT.visualizer.packetDropVisualizer dx 32
par GEANT.visualizer.packetDropVisualizer dy 64
par GEANT.visualizer.packetFlowVisualizer typename "\"inet.visualizer.canvas.flow.PacketFlowCanvasVisualizer\""
par GEANT.visualizer.packetFlowVisualizer visualizationTargetModule "\"^.^\""
par GEANT.visualizer.packetFlowVisualizer visualizationSubjectModule "\"^.^\""
par GEANT.visualizer.packetFlowVisualizer tags "\"\""
par GEANT.visualizer.packetFlowVisualizer displayRoutes false
par GEANT.visualizer.packetFlowVisualizer startPathSignal "\"packetFlowStarted\""
par GEANT.visualizer.packetFlowVisualizer extendPathSignal "\"packetReceivedFromLower\""
par GEANT.visualizer.packetFlowVisualizer endPathSignal "\"packetFlowEnded\""
par GEANT.visualizer.packetFlowVisualizer nodeFilter "\"*\""
attr mutable ""
par GEANT.visualizer.packetFlowVisualizer packetFilter "(omnetpp::cValueHolder)holder: \"*\""
attr mutable ""
par GEANT.visualizer.packetFlowVisualizer lineColor "\"dark\""
attr enum light,dark
par GEANT.visualizer.packetFlowVisualizer lineStyle "\"dashed\""
par GEANT.visualizer.packetFlowVisualizer lineWidth 3
par GEANT.visualizer.packetFlowVisualizer lineSmooth false
par GEANT.visualizer.packetFlowVisualizer lineShift 16
par GEANT.visualizer.packetFlowVisualizer lineShiftMode "\"normal\""
par GEANT.visualizer.packetFlowVisualizer lineContactSpacing 3
par GEANT.visualizer.packetFlowVisualizer lineContactMode "\"rectangular\""
attr enum circular,rectangular
par GEANT.visualizer.packetFlowVisualizer labelFormat "\"%L %p pk (%l)\""
par GEANT.visualizer.packetFlowVisualizer labelFont "\"<default>, 8px\""
par GEANT.visualizer.packetFlowVisualizer labelColor "\"\""
par GEANT.visualizer.packetFlowVisualizer fadeOutMode "\"realTime\""
attr enum realTime,animationTime,simulationTime
par GEANT.visualizer.packetFlowVisualizer fadeOutTime 0s
attr unit s
par GEANT.visualizer.packetFlowVisualizer fadeOutAnimationSpeed 0
par GEANT.visualizer.packetFlowVisualizer zIndex 4
par GEANT.visualizer.queueVisualizer typename "\"inet.visualizer.canvas.common.QueueCanvasVisualizer\""
par GEANT.visualizer.queueVisualizer visualizationTargetModule "\"^.^\""
par GEANT.visualizer.queueVisualizer visualizationSubjectModule "\"^.^\""
par GEANT.visualizer.queueVisualizer tags "\"\""
par GEANT.visualizer.queueVisualizer networkNodeVisualizerModule "\"^.networkNodeVisualizer\""
par GEANT.visualizer.queueVisualizer displayQueues false
par GEANT.visualizer.queueVisualizer queueFilter "\"**\""
par GEANT.visualizer.queueVisualizer color "\"blue\""
par GEANT.visualizer.queueVisualizer width 8
par GEANT.visualizer.queueVisualizer height 24
par GEANT.visualizer.queueVisualizer spacing 2
par GEANT.visualizer.queueVisualizer placementHint "\"right\""
par GEANT.visualizer.queueVisualizer placementPriority 0
par GEANT.visualizer.queueVisualizer zIndex 10
par GEANT.visualizer.gateScheduleVisualizer typename "\"inet.visualizer.canvas.common.GateScheduleCanvasVisualizer\""
par GEANT.visualizer.gateScheduleVisualizer visualizationTargetModule "\"^.^\""
par GEANT.visualizer.gateScheduleVisualizer visualizationSubjectModule "\"^.^\""
par GEANT.visualizer.gateScheduleVisualizer tags "\"\""
par GEANT.visualizer.gateScheduleVisualizer networkNodeVisualizerModule "\"^.networkNodeVisualizer\""
par GEANT.visualizer.gateScheduleVisualizer displayGateSchedules false
par GEANT.visualizer.gateScheduleVisualizer labelFormat "\"%i %D\""
par GEANT.visualizer.gateScheduleVisualizer gateFilter "\"**\""
par GEANT.visualizer.gateScheduleVisualizer width 100
par GEANT.visualizer.gateScheduleVisualizer height 8
par GEANT.visualizer.gateScheduleVisualizer spacing 2
par GEANT.visualizer.gateScheduleVisualizer placementHint "\"right\""
par GEANT.visualizer.gateScheduleVisualizer placementPriority 0
par GEANT.visualizer.gateScheduleVisualizer displayDuration 0s
attr mutable ""
attr unit s
par GEANT.visualizer.gateScheduleVisualizer currentTimePosition 50
par GEANT.visualizer.gateScheduleVisualizer zIndex 10
par GEANT.visualizer.radioVisualizer typename "\"inet.visualizer.canvas.physicallayer.RadioCanvasVisualizer\""
par GEANT.visualizer.radioVisualizer visualizationTargetModule "\"^.^\""
par GEANT.visualizer.radioVisualizer visualizationSubjectModule "\"^.^\""
par GEANT.visualizer.radioVisualizer tags "\"\""
par GEANT.visualizer.radioVisualizer networkNodeVisualizerModule "\"^.networkNodeVisualizer\""
par GEANT.visualizer.radioVisualizer displayRadios false
par GEANT.visualizer.radioVisualizer displayRadioMode true
par GEANT.visualizer.radioVisualizer displayReceptionState true
par GEANT.visualizer.radioVisualizer displayTransmissionState true
par GEANT.visualizer.radioVisualizer displayAntennaLobes false
par GEANT.visualizer.radioVisualizer radioFilter "\"**\""
attr mutable ""
par GEANT.visualizer.radioVisualizer radioModeImages "\"block/process_vs block/timer_vs block/wrx_vs block/wtx_vs block/wrxtx_vs block/cogwheel_vs\""
par GEANT.visualizer.radioVisualizer receptionStateImages "\"- - misc/receiving misc/receiving\""
par GEANT.visualizer.radioVisualizer transmissionStateImages "\"- - misc/transmitting\""
par GEANT.visualizer.radioVisualizer width 16
par GEANT.visualizer.radioVisualizer height 16
par GEANT.visualizer.radioVisualizer placementHint "\"bottomRight\""
par GEANT.visualizer.radioVisualizer placementPriority 0
par GEANT.visualizer.radioVisualizer antennaLobeNormalize false
par GEANT.visualizer.radioVisualizer antennaLobeRelativeLabels false
par GEANT.visualizer.radioVisualizer antennaLobePlaneGlobal true
par GEANT.visualizer.radioVisualizer antennaLobePlane "\"view\""
attr enum view,xy,xz,yz
par GEANT.visualizer.radioVisualizer antennaLobeMode "\"logarithmic\""
attr enum logarithmic,linear
par GEANT.visualizer.radioVisualizer antennaLobeLogarithmicBase 10
par GEANT.visualizer.radioVisualizer antennaLobeLogarithmicScale 100
par GEANT.visualizer.radioVisualizer antennaLobeRadius 100
par GEANT.visualizer.radioVisualizer antennaLobeStep 10deg
attr unit deg
par GEANT.visualizer.radioVisualizer antennaLobeOpacity 0.25
par GEANT.visualizer.radioVisualizer antennaLobeLineSmooth true
par GEANT.visualizer.radioVisualizer antennaLobeLineColor "\"black\""
par GEANT.visualizer.radioVisualizer antennaLobeLineStyle "\"solid\""
par GEANT.visualizer.radioVisualizer antennaLobeLineWidth 1
par GEANT.visualizer.radioVisualizer antennaLobeFillColor "\"white\""
par GEANT.visualizer.radioVisualizer zIndex 10
par GEANT.visualizer.physicalLinkVisualizer typename "\"inet.visualizer.canvas.physicallayer.PhysicalLinkCanvasVisualizer\""
par GEANT.visualizer.physicalLinkVisualizer visualizationTargetModule "\"^.^\""
par GEANT.visualizer.physicalLinkVisualizer visualizationSubjectModule "\"^.^\""
par GEANT.visualizer.physicalLinkVisualizer tags "\"\""
par GEANT.visualizer.physicalLinkVisualizer displayLinks false
par GEANT.visualizer.physicalLinkVisualizer activityLevel "\"service\""
attr enum service,peer,protocol
par GEANT.visualizer.physicalLinkVisualizer nodeFilter "\"*\""
attr mutable ""
par GEANT.visualizer.physicalLinkVisualizer interfaceFilter "\"*\""
attr mutable ""
par GEANT.visualizer.physicalLinkVisualizer packetFilter "(omnetpp::cValueHolder)holder: \"*\""
attr mutable ""
par GEANT.visualizer.physicalLinkVisualizer lineColor "\"olive\""
par GEANT.visualizer.physicalLinkVisualizer lineStyle "\"dotted\""
par GEANT.visualizer.physicalLinkVisualizer lineWidth 3
par GEANT.visualizer.physicalLinkVisualizer lineShift 16
par GEANT.visualizer.physicalLinkVisualizer lineShiftMode "\"normal\""
par GEANT.visualizer.physicalLinkVisualizer lineContactSpacing 3
par GEANT.visualizer.physicalLinkVisualizer lineContactMode "\"rectangular\""
attr enum circular,rectangular
par GEANT.visualizer.physicalLinkVisualizer labelFormat "\"%n\""
par GEANT.visualizer.physicalLinkVisualizer labelFont "\"<default>, 8px\""
par GEANT.visualizer.physicalLinkVisualizer labelColor "\"olive\""
par GEANT.visualizer.physicalLinkVisualizer fadeOutMode "\"realTime\""
attr enum realTime,animationTime,simulationTime
par GEANT.visualizer.physicalLinkVisualizer fadeOutTime 1s
attr unit s
par GEANT.visualizer.physicalLinkVisualizer fadeOutAnimationSpeed 0
par GEANT.visualizer.physicalLinkVisualizer holdAnimationTime 0s
attr unit s
par GEANT.visualizer.physicalLinkVisualizer zIndex 1
par GEANT.visualizer.interfaceTableVisualizer typename "\"inet.visualizer.canvas.linklayer.InterfaceTableCanvasVisualizer\""
par GEANT.visualizer.interfaceTableVisualizer visualizationTargetModule "\"^.^\""
par GEANT.visualizer.interfaceTableVisualizer visualizationSubjectModule "\"^.^\""
par GEANT.visualizer.interfaceTableVisualizer tags "\"\""
par GEANT.visualizer.interfaceTableVisualizer networkNodeVisualizerModule "\"^.networkNodeVisualizer\""
par GEANT.visualizer.interfaceTableVisualizer displayInterfaceTables true
par GEANT.visualizer.interfaceTableVisualizer displayWiredInterfacesAtConnections true
par GEANT.visualizer.interfaceTableVisualizer displayBackground false
par GEANT.visualizer.interfaceTableVisualizer nodeFilter "\"*\""
attr mutable ""
par GEANT.visualizer.interfaceTableVisualizer interfaceFilter "\"not(lo*)\""
attr mutable ""
par GEANT.visualizer.interfaceTableVisualizer format "\"%N %\\\\%a%/%l\""
attr mutable ""
par GEANT.visualizer.interfaceTableVisualizer placementHint "\"top\""
par GEANT.visualizer.interfaceTableVisualizer placementPriority 0
par GEANT.visualizer.interfaceTableVisualizer font "\"<default>\""
par GEANT.visualizer.interfaceTableVisualizer textColor "\"#005030\""
par GEANT.visualizer.interfaceTableVisualizer backgroundColor "\"white\""
par GEANT.visualizer.interfaceTableVisualizer opacity 1
par GEANT.visualizer.interfaceTableVisualizer zIndex 10
par GEANT.visualizer.dataLinkVisualizer typename "\"inet.visualizer.canvas.linklayer.DataLinkCanvasVisualizer\""
par GEANT.visualizer.dataLinkVisualizer visualizationTargetModule "\"^.^\""
par GEANT.visualizer.dataLinkVisualizer visualizationSubjectModule "\"^.^\""
par GEANT.visualizer.dataLinkVisualizer tags "\"\""
par GEANT.visualizer.dataLinkVisualizer displayLinks false
par GEANT.visualizer.dataLinkVisualizer activityLevel "\"service\""
attr enum service,peer,protocol
par GEANT.visualizer.dataLinkVisualizer nodeFilter "\"*\""
attr mutable ""
par GEANT.visualizer.dataLinkVisualizer interfaceFilter "\"*\""
attr mutable ""
par GEANT.visualizer.dataLinkVisualizer packetFilter "(omnetpp::cValueHolder)holder: \"*\""
attr mutable ""
par GEANT.visualizer.dataLinkVisualizer lineColor "\"darkcyan\""
par GEANT.visualizer.dataLinkVisualizer lineStyle "\"solid\""
par GEANT.visualizer.dataLinkVisualizer lineWidth 3
par GEANT.visualizer.dataLinkVisualizer lineShift 16
par GEANT.visualizer.dataLinkVisualizer lineShiftMode "\"normal\""
par GEANT.visualizer.dataLinkVisualizer lineContactSpacing 3
par GEANT.visualizer.dataLinkVisualizer lineContactMode "\"rectangular\""
attr enum circular,rectangular
par GEANT.visualizer.dataLinkVisualizer labelFormat "\"%n\""
par GEANT.visualizer.dataLinkVisualizer labelFont "\"<default>, 8px\""
par GEANT.visualizer.dataLinkVisualizer labelColor "\"darkcyan\""
par GEANT.visualizer.dataLinkVisualizer fadeOutMode "\"realTime\""
attr enum realTime,animationTime,simulationTime
par GEANT.visualizer.dataLinkVisualizer fadeOutTime 1s
attr unit s
par GEANT.visualizer.dataLinkVisualizer fadeOutAnimationSpeed 0
par GEANT.visualizer.dataLinkVisualizer holdAnimationTime 0s
attr unit s
par GEANT.visualizer.dataLinkVisualizer zIndex 2
par GEANT.visualizer.linkBreakVisualizer typename "\"inet.visualizer.canvas.linklayer.LinkBreakCanvasVisualizer\""
par GEANT.visualizer.linkBreakVisualizer visualizationTargetModule "\"^.^\""
par GEANT.visualizer.linkBreakVisualizer visualizationSubjectModule "\"^.^\""
par GEANT.visualizer.linkBreakVisualizer tags "\"\""
par GEANT.visualizer.linkBreakVisualizer displayLinkBreaks false
par GEANT.visualizer.linkBreakVisualizer nodeFilter "\"*\""
attr mutable ""
par GEANT.visualizer.linkBreakVisualizer interfaceFilter "\"*\""
attr mutable ""
par GEANT.visualizer.linkBreakVisualizer packetFilter "(omnetpp::cValueHolder)holder: \"*\""
attr mutable ""
par GEANT.visualizer.linkBreakVisualizer icon "\"status/stop\""
par GEANT.visualizer.linkBreakVisualizer iconTintAmount 0
par GEANT.visualizer.linkBreakVisualizer iconTintColor "\"\""
par GEANT.visualizer.linkBreakVisualizer fadeOutMode "\"realTime\""
attr enum realTime,animationTime,simulationTime
par GEANT.visualizer.linkBreakVisualizer fadeOutTime 1s
attr unit s
par GEANT.visualizer.linkBreakVisualizer fadeOutAnimationSpeed 0
par GEANT.visualizer.linkBreakVisualizer zIndex 2
par GEANT.visualizer.ieee80211Visualizer typename "\"inet.visualizer.canvas.linklayer.Ieee80211CanvasVisualizer\""
par GEANT.visualizer.ieee80211Visualizer visualizationTargetModule "\"^.^\""
par GEANT.visualizer.ieee80211Visualizer visualizationSubjectModule "\"^.^\""
par GEANT.visualizer.ieee80211Visualizer tags "\"\""
par GEANT.visualizer.ieee80211Visualizer networkNodeVisualizerModule "\"^.networkNodeVisualizer\""
par GEANT.visualizer.ieee80211Visualizer displayAssociations false
par GEANT.visualizer.ieee80211Visualizer nodeFilter "\"*\""
attr mutable ""
par GEANT.visualizer.ieee80211Visualizer interfaceFilter "\"*\""
attr mutable ""
par GEANT.visualizer.ieee80211Visualizer minPower -85dBm
attr unit dBm
par GEANT.visualizer.ieee80211Visualizer maxPower -50dBm
attr unit dBm
par GEANT.visualizer.ieee80211Visualizer icons "\"misc/signal_power_0 misc/signal_power_1 misc/signal_power_2 misc/signal_power_3\""
par GEANT.visualizer.ieee80211Visualizer iconColor "\"dark\""
attr enum light,dark
par GEANT.visualizer.ieee80211Visualizer labelFont "\"<default>\""
par GEANT.visualizer.ieee80211Visualizer labelColor "\"black\""
par GEANT.visualizer.ieee80211Visualizer placementHint "\"top\""
par GEANT.visualizer.ieee80211Visualizer placementPriority 0
par GEANT.visualizer.ieee80211Visualizer zIndex 2
par GEANT.visualizer.networkRouteVisualizer typename "\"inet.visualizer.canvas.networklayer.NetworkRouteCanvasVisualizer\""
par GEANT.visualizer.networkRouteVisualizer visualizationTargetModule "\"^.^\""
par GEANT.visualizer.networkRouteVisualizer visualizationSubjectModule "\"^.^\""
par GEANT.visualizer.networkRouteVisualizer tags "\"\""
par GEANT.visualizer.networkRouteVisualizer displayRoutes false
par GEANT.visualizer.networkRouteVisualizer startPathSignal "\"packetReceivedFromUpper\""
par GEANT.visualizer.networkRouteVisualizer extendPathSignal "\"packetReceivedFromLower\""
par GEANT.visualizer.networkRouteVisualizer endPathSignal "\"packetSentToUpper\""
par GEANT.visualizer.networkRouteVisualizer nodeFilter "\"*\""
attr mutable ""
par GEANT.visualizer.networkRouteVisualizer packetFilter "(omnetpp::cValueHolder)holder: \"*\""
attr mutable ""
par GEANT.visualizer.networkRouteVisualizer lineColor "\"dark\""
attr enum light,dark
par GEANT.visualizer.networkRouteVisualizer lineStyle "\"solid\""
par GEANT.visualizer.networkRouteVisualizer lineWidth 3
par GEANT.visualizer.networkRouteVisualizer lineSmooth false
par GEANT.visualizer.networkRouteVisualizer lineShift 16
par GEANT.visualizer.networkRouteVisualizer lineShiftMode "\"normal\""
par GEANT.visualizer.networkRouteVisualizer lineContactSpacing 3
par GEANT.visualizer.networkRouteVisualizer lineContactMode "\"rectangular\""
attr enum circular,rectangular
par GEANT.visualizer.networkRouteVisualizer labelFormat "\"%n\""
par GEANT.visualizer.networkRouteVisualizer labelFont "\"<default>, 8px\""
par GEANT.visualizer.networkRouteVisualizer labelColor "\"\""
par GEANT.visualizer.networkRouteVisualizer fadeOutMode "\"realTime\""
attr enum realTime,animationTime,simulationTime
par GEANT.visualizer.networkRouteVisualizer fadeOutTime 1s
attr unit s
par GEANT.visualizer.networkRouteVisualizer fadeOutAnimationSpeed 0
par GEANT.visualizer.networkRouteVisualizer zIndex 3
par GEANT.visualizer.routingTableVisualizer typename "\"inet.visualizer.canvas.networklayer.RoutingTableCanvasVisualizer\""
par GEANT.visualizer.routingTableVisualizer visualizationTargetModule "\"^.^\""
par GEANT.visualizer.routingTableVisualizer visualizationSubjectModule "\"^.^\""
par GEANT.visualizer.routingTableVisualizer tags "\"\""
par GEANT.visualizer.routingTableVisualizer displayRoutingTables false
par GEANT.visualizer.routingTableVisualizer displayRoutesIndividually true
par GEANT.visualizer.routingTableVisualizer displayLabels true
par GEANT.visualizer.routingTableVisualizer destinationFilter "\"*\""
attr mutable ""
par GEANT.visualizer.routingTableVisualizer nodeFilter "\"*\""
attr mutable ""
par GEANT.visualizer.routingTableVisualizer lineColor "\"black\""
par GEANT.visualizer.routingTableVisualizer lineStyle "\"solid\""
par GEANT.visualizer.routingTableVisualizer lineWidth 2
par GEANT.visualizer.routingTableVisualizer lineShift 16
par GEANT.visualizer.routingTableVisualizer lineShiftMode "\"normal\""
par GEANT.visualizer.routingTableVisualizer lineContactSpacing 3
par GEANT.visualizer.routingTableVisualizer lineContactMode "\"rectangular\""
attr enum circular,rectangular
par GEANT.visualizer.routingTableVisualizer labelFormat "\"%d/%m -> %g (%n)\""
attr mutable ""
par GEANT.visualizer.routingTableVisualizer labelFont "\"<default>, 8px\""
par GEANT.visualizer.routingTableVisualizer labelColor "\"black\""
par GEANT.visualizer.routingTableVisualizer zIndex 0
par GEANT.visualizer.transportRouteVisualizer typename "\"inet.visualizer.canvas.transportlayer.TransportRouteCanvasVisualizer\""
par GEANT.visualizer.transportRouteVisualizer visualizationTargetModule "\"^.^\""
par GEANT.visualizer.transportRouteVisualizer visualizationSubjectModule "\"^.^\""
par GEANT.visualizer.transportRouteVisualizer tags "\"\""
par GEANT.visualizer.transportRouteVisualizer displayRoutes false
par GEANT.visualizer.transportRouteVisualizer startPathSignal "\"packetReceivedFromUpper\""
par GEANT.visualizer.transportRouteVisualizer extendPathSignal "\"packetReceivedFromLower\""
par GEANT.visualizer.transportRouteVisualizer endPathSignal "\"packetSentToUpper\""
par GEANT.visualizer.transportRouteVisualizer nodeFilter "\"*\""
attr mutable ""
par GEANT.visualizer.transportRouteVisualizer packetFilter "(omnetpp::cValueHolder)holder: \"*\""
attr mutable ""
par GEANT.visualizer.transportRouteVisualizer lineColor "\"dark\""
attr enum light,dark
par GEANT.visualizer.transportRouteVisualizer lineStyle "\"solid\""
par GEANT.visualizer.transportRouteVisualizer lineWidth 3
par GEANT.visualizer.transportRouteVisualizer lineSmooth false
par GEANT.visualizer.transportRouteVisualizer lineShift 16
par GEANT.visualizer.transportRouteVisualizer lineShiftMode "\"normal\""
par GEANT.visualizer.transportRouteVisualizer lineContactSpacing 3
par GEANT.visualizer.transportRouteVisualizer lineContactMode "\"rectangular\""
attr enum circular,rectangular
par GEANT.visualizer.transportRouteVisualizer labelFormat "\"%n\""
par GEANT.visualizer.transportRouteVisualizer labelFont "\"<default>, 8px\""
par GEANT.visualizer.transportRouteVisualizer labelColor "\"\""
par GEANT.visualizer.transportRouteVisualizer fadeOutMode "\"realTime\""
attr enum realTime,animationTime,simulationTime
par GEANT.visualizer.transportRouteVisualizer fadeOutTime 1s
attr unit s
par GEANT.visualizer.transportRouteVisualizer fadeOutAnimationSpeed 0
par GEANT.visualizer.transportRouteVisualizer zIndex 4
par GEANT.visualizer.transportConnectionVisualizer typename "\"inet.visualizer.canvas.transportlayer.TransportConnectionCanvasVisualizer\""
par GEANT.visualizer.transportConnectionVisualizer visualizationTargetModule "\"^.^\""
par GEANT.visualizer.transportConnectionVisualizer visualizationSubjectModule "\"^.^\""
par GEANT.visualizer.transportConnectionVisualizer tags "\"\""
par GEANT.visualizer.transportConnectionVisualizer networkNodeVisualizerModule "\"^.networkNodeVisualizer\""
par GEANT.visualizer.transportConnectionVisualizer displayTransportConnections false
par GEANT.visualizer.transportConnectionVisualizer sourceNodeFilter "\"*\""
attr mutable ""
par GEANT.visualizer.transportConnectionVisualizer sourcePortFilter "\"*\""
attr mutable ""
par GEANT.visualizer.transportConnectionVisualizer destinationNodeFilter "\"*\""
attr mutable ""
par GEANT.visualizer.transportConnectionVisualizer destinationPortFilter "\"*\""
attr mutable ""
par GEANT.visualizer.transportConnectionVisualizer icon "\"misc/marker_s\""
par GEANT.visualizer.transportConnectionVisualizer iconColor "\"dark\""
attr enum light,dark
par GEANT.visualizer.transportConnectionVisualizer labelFont "\"<default>\""
par GEANT.visualizer.transportConnectionVisualizer labelColor "\"black\""
par GEANT.visualizer.transportConnectionVisualizer placementHint "\"top\""
par GEANT.visualizer.transportConnectionVisualizer placementPriority 0
par GEANT.visualizer.transportConnectionVisualizer zIndex 4
par GEANT.visualizer.failureProtectionConfigurationVisualizer typename "\"inet.visualizer.canvas.configurator.FailureProtectionConfigurationCanvasVisualizer\""
par GEANT.visualizer.failureProtectionConfigurationVisualizer visualizationTargetModule "\"^.^\""
par GEANT.visualizer.failureProtectionConfigurationVisualizer visualizationSubjectModule "\"^.^\""
par GEANT.visualizer.failureProtectionConfigurationVisualizer tags "\"\""
par GEANT.visualizer.failureProtectionConfigurationVisualizer displayTrees false
par GEANT.visualizer.failureProtectionConfigurationVisualizer lineColor "\"dark\""
attr enum light,dark
par GEANT.visualizer.failureProtectionConfigurationVisualizer lineStyle "\"solid\""
par GEANT.visualizer.failureProtectionConfigurationVisualizer lineWidth 3
par GEANT.visualizer.failureProtectionConfigurationVisualizer lineSmooth false
par GEANT.visualizer.failureProtectionConfigurationVisualizer lineShift 16
par GEANT.visualizer.failureProtectionConfigurationVisualizer lineShiftMode "\"normal\""
par GEANT.visualizer.failureProtectionConfigurationVisualizer lineContactSpacing 3
par GEANT.visualizer.failureProtectionConfigurationVisualizer lineContactMode "\"rectangular\""
attr enum circular,rectangular
par GEANT.visualizer.failureProtectionConfigurationVisualizer failureProtectionConfiguratorModule "\"failureProtectionConfigurator\""
par GEANT.visualizer.failureProtectionConfigurationVisualizer streamFilter "\"*\""
par GEANT.visualizer.failureProtectionConfigurationVisualizer zIndex 3
par GEANT.visualizer.streamRedundancyConfigurationVisualizer typename "\"inet.visualizer.canvas.configurator.StreamRedundancyConfigurationCanvasVisualizer\""
par GEANT.visualizer.streamRedundancyConfigurationVisualizer visualizationTargetModule "\"^.^\""
par GEANT.visualizer.streamRedundancyConfigurationVisualizer visualizationSubjectModule "\"^.^\""
par GEANT.visualizer.streamRedundancyConfigurationVisualizer tags "\"\""
par GEANT.visualizer.streamRedundancyConfigurationVisualizer displayTrees false
par GEANT.visualizer.streamRedundancyConfigurationVisualizer lineColor "\"dark\""
attr enum light,dark
par GEANT.visualizer.streamRedundancyConfigurationVisualizer lineStyle "\"solid\""
par GEANT.visualizer.streamRedundancyConfigurationVisualizer lineWidth 3
par GEANT.visualizer.streamRedundancyConfigurationVisualizer lineSmooth false
par GEANT.visualizer.streamRedundancyConfigurationVisualizer lineShift 16
par GEANT.visualizer.streamRedundancyConfigurationVisualizer lineShiftMode "\"normal\""
par GEANT.visualizer.streamRedundancyConfigurationVisualizer lineContactSpacing 3
par GEANT.visualizer.streamRedundancyConfigurationVisualizer lineContactMode "\"rectangular\""
attr enum circular,rectangular
par GEANT.visualizer.streamRedundancyConfigurationVisualizer streamRedundancyConfiguratorModule "\"streamRedundancyConfigurator\""
par GEANT.visualizer.streamRedundancyConfigurationVisualizer streamFilter "\"*\""
par GEANT.visualizer.streamRedundancyConfigurationVisualizer zIndex 3
[...]
scalar GEANT.node23.app[14] "packets received" 0
scalar GEANT.node23.app[14] packetReceived:count 0
attr interpolationmode none
attr recordingmode count
attr source packetReceived
attr title "packets received, count"
scalar GEANT.node23.app[14] packetReceived:sum(packetBytes) 0
attr interpolationmode none
attr recordingmode sum(packetBytes)
attr source packetReceived
attr title "packets received, sum(packetBytes)"
statistic GEANT.node23.app[14] rcvdPkLifetime:stats
field count 0
field mean -nan
field stddev nan
field min nan
field max nan
field sum 0
field sqrsum 0
attr interpolationmode none
attr recordingmode stats
attr source dataAge(packetReceived)
attr title "received packet lifetime"
attr unit s
scalar GEANT.node23.app[14] packetSent:count 60
attr interpolationmode none
attr recordingmode count
attr source packetSent
attr title "packets sent, count"
scalar GEANT.node23.app[14] packetSent:sum(packetBytes) 60000
attr interpolationmode none
attr recordingmode sum(packetBytes)
attr source packetSent
attr title "packets sent, sum(packetBytes)"
par GEANT.node23.app[15] typename "\"inet.applications.udpapp.UdpBasicApp\""
par GEANT.node23.app[15] interfaceTableModule "\"GEANT.node23.interfaceTable\""
par GEANT.node23.app[15] clockModule "\"\""
par GEANT.node23.app[15] localPort -1
par GEANT.node23.app[15] destAddresses "\"node15\""
par GEANT.node23.app[15] localAddress "\"\""
par GEANT.node23.app[15] packetName "\"UDPData\""
par GEANT.node23.app[15] destPort 5015
par GEANT.node23.app[15] messageLength 1000B
attr unit B
par GEANT.node23.app[15] startTime 0.00803449s
attr unit s
par GEANT.node23.app[15] stopTime -1s
attr unit s
par GEANT.node23.app[15] sendInterval exponential(12ms)
attr unit s
par GEANT.node23.app[15] timeToLive -1
par GEANT.node23.app[15] dontFragment false
par GEANT.node23.app[15] dscp -1
par GEANT.node23.app[15] tos -1
par GEANT.node23.app[15] multicastInterface "\"\""
par GEANT.node23.app[15] receiveBroadcast false
par GEANT.node23.app[15] joinLocalMulticastGroups false
par GEANT.node23.app[15] stopOperationExtraTime -1s
attr unit s
par GEANT.node23.app[15] stopOperationTimeout 2s
attr unit s
scalar GEANT.node23.app[15] "packets sent" 45
scalar GEANT.node23.app[15] "packets received" 0
scalar GEANT.node23.app[15] packetReceived:count 0
attr interpolationmode none
attr recordingmode count
attr source packetReceived
attr title "packets received, count"
scalar GEANT.node23.app[15] packetReceived:sum(packetBytes) 0
attr interpolationmode none
attr recordingmode sum(packetBytes)
attr source packetReceived
attr title "packets received, sum(packetBytes)"
statistic GEANT.node23.app[15] rcvdPkLifetime:stats
field count 0
field mean -nan
field stddev nan
field min nan
field max nan
field sum 0
field sqrsum 0
attr interpolationmode none
attr recordingmode stats
attr source dataAge(packetReceived)
attr title "received packet lifetime"
attr unit s
scalar GEANT.node23.app[15] packetSent:count 45
attr interpolationmode none
attr recordingmode count
attr source packetSent
attr title "packets sent, count"
scalar GEANT.node23.app[15] packetSent:sum(packetBytes) 45000
attr interpolationmode none
attr recordingmode sum(packetBytes)
attr source packetSent
attr title "packets sent, sum(packetBytes)"
par GEANT.node23.app[16] typename "\"inet.applications.udpapp.UdpBasicApp\""
par GEANT.node23.app[16] interfaceTableModule "\"GEANT.node23.interfaceTable\""
par GEANT.node23.app[16] clockModule "\"\""
par GEANT.node23.app[16] localPort -1
par GEANT.node23.app[16] destAddresses "\"node16\""
par GEANT.node23.app[16] localAddress "\"\""
par GEANT.node23.app[16] packetName "\"UDPData\""
par GEANT.node23.app[16] destPort 5016
par GEANT.node23.app[16] messageLength 1000B
attr unit B
par GEANT.node23.app[16] startTime 0.00160009s
attr unit s
par GEANT.node23.app[16] stopTime -1s
attr unit s
par GEANT.node23.app[16] sendInterval exponential(12ms)
attr unit s
par GEANT.node23.app[16] timeToLive -1
par GEANT.node23.app[16] dontFragment false
par GEANT.node23.app[16] dscp -1
par GEANT.node23.app[16] tos -1
par GEANT.node23.app[16] multicastInterface "\"\""
par GEANT.node23.app[16] receiveBroadcast false
par GEANT.node23.app[16] joinLocalMulticastGroups false
par GEANT.node23.app[16] stopOperationExtraTime -1s
attr unit s
par GEANT.node23.app[16] stopOperationTimeout 2s
attr unit s
scalar GEANT.node23.app[16] "packets sent" 52
scalar GEANT.node23.app[16] "packets received" 0
scalar GEANT.node23.app[16] packetReceived:count 0
attr interpolationmode none
attr recordingmode count
attr source packetReceived
attr title "packets received, count"
scalar GEANT.node23.app[16] packetReceived:sum(packetBytes) 0
attr interpolationmode none
attr recordingmode sum(packetBytes)
attr source packetReceived
attr title "packets received, sum(packetBytes)"
statistic GEANT.node23.app[16] rcvdPkLifetime:stats
field count 0
field mean -nan
field stddev nan
field min nan
field max nan
field sum 0
field sqrsum 0
attr interpolationmode none
attr recordingmode stats
attr source dataAge(packetReceived)
attr title "received packet lifetime"
attr unit s
scalar GEANT.node23.app[16] packetSent:count 52
attr interpolationmode none
attr recordingmode count
attr source packetSent
attr title "packets sent, count"
scalar GEANT.node23.app[16] packetSent:sum(packetBytes) 52000
attr interpolationmode none
attr recordingmode sum(packetBytes)
attr source packetSent
attr title "packets sent, sum(packetBytes)"
par GEANT.node23.app[17] typename "\"inet.applications.udpapp.UdpBasicApp\""
par GEANT.node23.app[17] interfaceTableModule "\"GEANT.node23.interfaceTable\""
par GEANT.node23.app[17] clockModule "\"\""
par GEANT.node23.app[17] localPort -1
par GEANT.node23.app[17] destAddresses "\"node17\""
par GEANT.node23.app[17] localAddress "\"\""
par GEANT.node23.app[17] packetName "\"UDPData\""
par GEANT.node23.app[17] destPort 5017
par GEANT.node23.app[17] messageLength 1000B
attr unit B
par GEANT.node23.app[17] startTime 0.00527346s
attr unit s
par GEANT.node23.app[17] stopTime -1s
attr unit s
par GEANT.node23.app[17] sendInterval exponential(12ms)
attr unit s
par GEANT.node23.app[17] timeToLive -1
par GEANT.node23.app[17] dontFragment false
par GEANT.node23.app[17] dscp -1
par GEANT.node23.app[17] tos -1
par GEANT.node23.app[17] multicastInterface "\"\""
par GEANT.node23.app[17] receiveBroadcast false
par GEANT.node23.app[17] joinLocalMulticastGroups false
par GEANT.node23.app[17] stopOperationExtraTime -1s
attr unit s
par GEANT.node23.app[17] stopOperationTimeout 2s
attr unit s
scalar GEANT.node23.app[17] "packets sent" 39
scalar GEANT.node23.app[17] "packets received" 0
scalar GEANT.node23.app[17] packetReceived:count 0
attr interpolationmode none
attr recordingmode count
attr source packetReceived
attr title "packets received, count"
scalar GEANT.node23.app[17] packetReceived:sum(packetBytes) 0
attr interpolationmode none
attr recordingmode sum(packetBytes)
attr source packetReceived
attr title "packets received, sum(packetBytes)"
statistic GEANT.node23.app[17] rcvdPkLifetime:stats
field count 0
field mean -nan
field stddev nan
field min nan
field max nan
field sum 0
field sqrsum 0
attr interpolationmode none
attr recordingmode stats
attr source dataAge(packetReceived)
attr title "received packet lifetime"
attr unit s
scalar GEANT.node23.app[17] packetSent:count 39
attr interpolationmode none
attr recordingmode count
attr source packetSent
attr title "packets sent, count"
scalar GEANT.node23.app[17] packetSent:sum(packetBytes) 39000
attr interpolationmode none
attr recordingmode sum(packetBytes)
attr source packetSent
attr title "packets sent, sum(packetBytes)"
par GEANT.node23.app[18] typename "\"inet.applications.udpapp.UdpBasicApp\""
par GEANT.node23.app[18] interfaceTableModule "\"GEANT.node23.interfaceTable\""
par GEANT.node23.app[18] clockModule "\"\""
par GEANT.node23.app[18] localPort -1
par GEANT.node23.app[18] destAddresses "\"node18\""
par GEANT.node23.app[18] localAddress "\"\""
par GEANT.node23.app[18] packetName "\"UDPData\""
par GEANT.node23.app[18] destPort 5018
par GEANT.node23.app[18] messageLength 1000B
attr unit B
par GEANT.node23.app[18] startTime 0.0153651s
attr unit s
par GEANT.node23.app[18] stopTime -1s
attr unit s
par GEANT.node23.app[18] sendInterval exponential(12ms)
attr unit s
par GEANT.node23.app[18] timeToLive -1
par GEANT.node23.app[18] dontFragment false
par GEANT.node23.app[18] dscp -1
par GEANT.node23.app[18] tos -1
par GEANT.node23.app[18] multicastInterface "\"\""
par GEANT.node23.app[18] receiveBroadcast false
par GEANT.node23.app[18] joinLocalMulticastGroups false
par GEANT.node23.app[18] stopOperationExtraTime -1s
attr unit s
par GEANT.node23.app[18] stopOperationTimeout 2s
attr unit s
scalar GEANT.node23.app[18] "packets sent" 48
scalar GEANT.node23.app[18] "packets received" 0
scalar GEANT.node23.app[18] packetReceived:count 0
attr interpolationmode none
attr recordingmode count
attr source packetReceived
attr title "packets received, count"
scalar GEANT.node23.app[18] packetReceived:sum(packetBytes) 0
attr interpolationmode none
attr recordingmode sum(packetBytes)
attr source packetReceived
attr title "packets received, sum(packetBytes)"
statistic GEANT.node23.app[18] rcvdPkLifetime:stats
field count 0
field mean -nan
field stddev nan
field min nan
field max nan
field sum 0
field sqrsum 0
attr interpolationmode none
attr recordingmode stats
attr source dataAge(packetReceived)
attr title "received packet lifetime"
attr unit s
scalar GEANT.node23.app[18] packetSent:count 48
attr interpolationmode none
attr recordingmode count
attr source packetSent
attr title "packets sent, count"
scalar GEANT.node23.app[18] packetSent:sum(packetBytes) 48000
attr interpolationmode none
attr recordingmode sum(packetBytes)
attr source packetSent
attr title "packets sent, sum(packetBytes)"
par GEANT.node23.app[19] typename "\"inet.applications.udpapp.UdpBasicApp\""
par GEANT.node23.app[19] interfaceTableModule "\"GEANT.node23.interfaceTable\""
par GEANT.node23.app[19] clockModule "\"\""
par GEANT.node23.app[19] localPort -1
par GEANT.node23.app[19] destAddresses "\"node19\""
par GEANT.node23.app[19] localAddress "\"\""
par GEANT.node23.app[19] packetName "\"UDPData\""
par GEANT.node23.app[19] destPort 5019
par GEANT.node23.app[19] messageLength 1000B
attr unit B
par GEANT.node23.app[19] startTime 0.0338476s
attr unit s
par GEANT.node23.app[19] stopTime -1s
attr unit s
par GEANT.node23.app[19] sendInterval exponential(12ms)
attr unit s
par GEANT.node23.app[19] timeToLive -1
par GEANT.node23.app[19] dontFragment false
par GEANT.node23.app[19] dscp -1
par GEANT.node23.app[19] tos -1
par GEANT.node23.app[19] multicastInterface "\"\""
par GEANT.node23.app[19] receiveBroadcast false
par GEANT.node23.app[19] joinLocalMulticastGroups false
par GEANT.node23.app[19] stopOperationExtraTime -1s
attr unit s
par GEANT.node23.app[19] stopOperationTimeout 2s
attr unit s
scalar GEANT.node23.app[19] "packets sent" 36
scalar GEANT.node23.app[19] "packets received" 0
scalar GEANT.node23.app[19] packetReceived:count 0
attr interpolationmode none
attr recordingmode count
attr source packetReceived
attr title "packets received, count"
scalar GEANT.node23.app[19] packetReceived:sum(packetBytes) 0
attr interpolationmode none
attr recordingmode sum(packetBytes)
attr source packetReceived
attr title "packets received, sum(packetBytes)"
statistic GEANT.node23.app[19] rcvdPkLifetime:stats
field count 0
field mean -nan
field stddev nan
field min nan
field max nan
field sum 0
field sqrsum 0
attr interpolationmode none
attr recordingmode stats
attr source dataAge(packetReceived)
attr title "received packet lifetime"
attr unit s
scalar GEANT.node23.app[19] packetSent:count 36
attr interpolationmode none
attr recordingmode count
attr source packetSent
attr title "packets sent, count"
scalar GEANT.node23.app[19] packetSent:sum(packetBytes) 36000
attr interpolationmode none
attr recordingmode sum(packetBytes)
attr source packetSent
attr title "packets sent, sum(packetBytes)"
par GEANT.node23.app[20] typename "\"inet.applications.udpapp.UdpBasicApp\""
par GEANT.node23.app[20] interfaceTableModule "\"GEANT.node23.interfaceTable\""
par GEANT.node23.app[20] clockModule "\"\""
par GEANT.node23.app[20] localPort -1
par GEANT.node23.app[20] destAddresses "\"node20\""
par GEANT.node23.app[20] localAddress "\"\""
par GEANT.node23.app[20] packetName "\"UDPData\""
par GEANT.node23.app[20] destPort 5020
par GEANT.node23.app[20] messageLength 1000B
attr unit B
par GEANT.node23.app[20] startTime 0.000371115s
attr unit s
par GEANT.node23.app[20] stopTime -1s
attr unit s
par GEANT.node23.app[20] sendInterval exponential(12ms)
attr unit s
par GEANT.node23.app[20] timeToLive -1
par GEANT.node23.app[20] dontFragment false
par GEANT.node23.app[20] dscp -1
par GEANT.node23.app[20] tos -1
par GEANT.node23.app[20] multicastInterface "\"\""
par GEANT.node23.app[20] receiveBroadcast false
par GEANT.node23.app[20] joinLocalMulticastGroups false
par GEANT.node23.app[20] stopOperationExtraTime -1s
attr unit s
par GEANT.node23.app[20] stopOperationTimeout 2s
attr unit s
scalar GEANT.node23.app[20] "packets sent" 39
scalar GEANT.node23.app[20] "packets received" 0
scalar GEANT.node23.app[20] packetReceived:count 0
attr interpolationmode none
attr recordingmode count
attr source packetReceived
attr title "packets received, count"
scalar GEANT.node23.app[20] packetReceived:sum(packetBytes) 0
attr interpolationmode none
attr recordingmode sum(packetBytes)
attr source packetReceived
attr title "packets received, sum(packetBytes)"
statistic GEANT.node23.app[20] rcvdPkLifetime:stats
field count 0
field mean -nan
field stddev nan
field min nan
field max nan
field sum 0
field sqrsum 0
attr interpolationmode none
attr recordingmode stats
attr source dataAge(packetReceived)
attr title "received packet lifetime"
attr unit s
scalar GEANT.node23.app[20] packetSent:count 39
attr interpolationmode none
attr recordingmode count
attr source packetSent
attr title "packets sent, count"
scalar GEANT.node23.app[20] packetSent:sum(packetBytes) 39000
attr interpolationmode none
attr recordingmode sum(packetBytes)
attr source packetSent
attr title "packets sent, sum(packetBytes)"
par GEANT.node23.app[21] typename "\"inet.applications.udpapp.UdpBasicApp\""
par GEANT.node23.app[21] interfaceTableModule "\"GEANT.node23.interfaceTable\""
par GEANT.node23.app[21] clockModule "\"\""
par GEANT.node23.app[21] localPort -1
par GEANT.node23.app[21] destAddresses "\"node21\""
par GEANT.node23.app[21] localAddress "\"\""
par GEANT.node23.app[21] packetName "\"UDPData\""
par GEANT.node23.app[21] destPort 5021
par GEANT.node23.app[21] messageLength 1000B
attr unit B
par GEANT.node23.app[21] startTime 0.0173947s
attr unit s
par GEANT.node23.app[21] stopTime -1s
attr unit s
par GEANT.node23.app[21] sendInterval exponential(12ms)
attr unit s
par GEANT.node23.app[21] timeToLive -1
par GEANT.node23.app[21] dontFragment false
par GEANT.node23.app[21] dscp -1
par GEANT.node23.app[21] tos -1
par GEANT.node23.app[21] multicastInterface "\"\""
par GEANT.node23.app[21] receiveBroadcast false
par GEANT.node23.app[21] joinLocalMulticastGroups false
par GEANT.node23.app[21] stopOperationExtraTime -1s
attr unit s
par GEANT.node23.app[21] stopOperationTimeout 2s
attr unit s
scalar GEANT.node23.app[21] "packets sent" 53
scalar GEANT.node23.app[21] "packets received" 0
scalar GEANT.node23.app[21] packetReceived:count 0
attr interpolationmode none
attr recordingmode count
attr source packetReceived
attr title "packets received, count"
scalar GEANT.node23.app[21] packetReceived:sum(packetBytes) 0
attr interpolationmode none
attr recordingmode sum(packetBytes)
attr source packetReceived
attr title "packets received, sum(packetBytes)"
statistic GEANT.node23.app[21] rcvdPkLifetime:stats
field count 0
field mean -nan
field stddev nan
field min nan
field max nan
field sum 0
field sqrsum 0
attr interpolationmode none
attr recordingmode stats
attr source dataAge(packetReceived)
attr title "received packet lifetime"
attr unit s
scalar GEANT.node23.app[21] packetSent:count 53
attr interpolationmode none
attr recordingmode count
attr source packetSent
attr title "packets sent, count"
scalar GEANT.node23.app[21] packetSent:sum(packetBytes) 53000
attr interpolationmode none
attr recordingmode sum(packetBytes)
attr source packetSent
attr title "packets sent, sum(packetBytes)"
par GEANT.node23.app[22] typename "\"inet.applications.udpapp.UdpBasicApp\""
par GEANT.node23.app[22] interfaceTableModule "\"GEANT.node23.interfaceTable\""
par GEANT.node23.app[22] clockModule "\"\""
par GEANT.node23.app[22] localPort -1
par GEANT.node23.app[22] destAddresses "\"node22\""
par GEANT.node23.app[22] localAddress "\"\""
par GEANT.node23.app[22] packetName "\"UDPData\""
par GEANT.node23.app[22] destPort 5022
par GEANT.node23.app[22] messageLength 1000B
attr unit B
par GEANT.node23.app[22] startTime 0.0164921s
attr unit s
par GEANT.node23.app[22] stopTime -1s
attr unit s
par GEANT.node23.app[22] sendInterval exponential(12ms)
attr unit s
par GEANT.node23.app[22] timeToLive -1
par GEANT.node23.app[22] dontFragment false
par GEANT.node23.app[22] dscp -1
par GEANT.node23.app[22] tos -1
par GEANT.node23.app[22] multicastInterface "\"\""
par GEANT.node23.app[22] receiveBroadcast false
par GEANT.node23.app[22] joinLocalMulticastGroups false
par GEANT.node23.app[22] stopOperationExtraTime -1s
attr unit s
par GEANT.node23.app[22] stopOperationTimeout 2s
attr unit s
scalar GEANT.node23.app[22] "packets sent" 49
scalar GEANT.node23.app[22] "packets received" 0
scalar GEANT.node23.app[22] packetReceived:count 0
attr interpolationmode none
attr recordingmode count
attr source packetReceived
attr title "packets received, count"
scalar GEANT.node23.app[22] packetReceived:sum(packetBytes) 0
attr interpolationmode none
attr recordingmode sum(packetBytes)
attr source packetReceived
attr title "packets received, sum(packetBytes)"
statistic GEANT.node23.app[22] rcvdPkLifetime:stats
field count 0
field mean -nan
field stddev nan
field min nan
field max nan
field sum 0
field sqrsum 0
attr interpolationmode none
attr recordingmode stats
attr source dataAge(packetReceived)
attr title "received packet lifetime"
attr unit s
scalar GEANT.node23.app[22] packetSent:count 49
attr interpolationmode none
attr recordingmode count
attr source packetSent
attr title "packets sent, count"
scalar GEANT.node23.app[22] packetSent:sum(packetBytes) 49000
attr interpolationmode none
attr recordingmode sum(packetBytes)
attr source packetSent
attr title "packets sent, sum(packetBytes)"
par GEANT.node23.at typename "\"inet.common.MessageDispatcher\""
par GEANT.node23.at displayStringTextFormat "\"processed %p pk (%l)\""
par GEANT.node23.at forwardServiceRegistration true
par GEANT.node23.at forwardProtocolRegistration true
par GEANT.node23 typename "\"inet.node.inet.Router\""
par GEANT.node23 hasStatus false
par GEANT.node23 osgModel "\"\""
par GEANT.node23 osgModelColor "\"\""
par GEANT.node23 canvasImage "\"\""
par GEANT.node23 canvasImageColor "\"\""
par GEANT.node23 recordPcap false
par GEANT.node23 numPcapRecorders 0
par GEANT.node23 numLoInterfaces 1
par GEANT.node23 numWlanInterfaces 0
par GEANT.node23 numEthInterfaces 0
par GEANT.node23 numPppInterfaces 0
par GEANT.node23 numTunInterfaces 0
par GEANT.node23 numVirtInterfaces 0
par GEANT.node23 fcsMode "\"declared\""
attr enum declared,computed
par GEANT.node23 hasIpv4 true
par GEANT.node23 hasIpv6 false
par GEANT.node23 hasGn false
par GEANT.node23 forwarding true
par GEANT.node23 multicastForwarding false
par GEANT.node23 hasUdp true
par GEANT.node23 hasTcp false
par GEANT.node23 hasSctp false
par GEANT.node23 numApps 23
par GEANT.node23 hasEigrp false
par GEANT.node23 hasOspf false
par GEANT.node23 hasRip false
par GEANT.node23 hasBgp false
par GEANT.node23 hasPim false
par GEANT.node23 hasDhcp false
par GEANT typename "\"sdn_simulator.simulations.GEANT\""

